@<TRIPOS>MOLECULE
CHEMBL85549
  48   51
SMALL
USER_CHARGES
@<TRIPOS>ATOM
   1 O1           1.9764    -1.8037    -0.8118 O.3          1    LIG   0.0000
   2 C2           1.8141    -1.6328     0.5885 C.3          1    LIG   0.0000
   3 C3           1.3094    -0.2274     0.8722 C.3          1    LIG   0.0000
   4 O4           2.2595     0.6945     0.3793 O.3          1    LIG   0.0000
   5 C5           1.5538     1.8563    -0.0337 C.3          1    LIG   0.0000
   6 N6           1.8323     3.0253     0.8117 N.pl3        1    LIG   0.0000
   7 C7           2.3682     4.1962     0.3648 C.2          1    LIG   0.0000
   8 N8           2.4677     5.0047     1.3957 N.2          1    LIG   0.0000
   9 C9           2.0033     4.3675     2.5106 C.ar         1    LIG   0.0000
  10 C10          1.8872     4.7684     3.8381 C.ar         1    LIG   0.0000
  11 N11          2.3039     6.0562     4.1959 N.pl3        1    LIG   0.0000
  12 C12          2.1917     6.5036     5.5912 C.3          1    LIG   0.0000
  13 C13          0.7314     6.6992     5.9662 C.3          1    LIG   0.0000
  14 C14          0.6129     7.1573     7.4109 C.3          1    LIG   0.0000
  15 C15          1.3776     8.4580     7.5966 C.3          1    LIG   0.0000
  16 C16          2.8406     8.2654     7.2308 C.3          1    LIG   0.0000
  17 C17          2.9603     7.8001     5.7884 C.3          1    LIG   0.0000
  18 N18          1.3841     3.9296     4.7563 N.ar         1    LIG   0.0000
  19 C19          0.9908     2.6989     4.3938 C.ar         1    LIG   0.0000
  20 N20          1.0949     2.3073     3.1131 N.ar         1    LIG   0.0000
  21 C21          1.5924     3.1057     2.1524 C.ar         1    LIG   0.0000
  22 C22          0.0701     1.5522     0.0613 C.3          1    LIG   0.0000
  23 O23         -0.4872     2.0154     1.2823 O.3          1    LIG   0.0000
  24 C24          0.0937     0.0406     0.0147 C.3          1    LIG   0.0000
  25 O25         -1.0732    -0.5264     0.5945 O.3          1    LIG   0.0000
  26 H            1.1205    -0.0866     1.8440 H            1    LIG   0.0000
  27 H           -0.4237     1.9274    -0.7232 H            1    LIG   0.0000
  28 H            0.2302    -0.2899    -0.9191 H            1    LIG   0.0000
  29 H            2.3084    -2.7284    -0.9985 H            1    LIG   0.0000
  30 H            2.6931    -1.7698     1.0451 H            1    LIG   0.0000
  31 H            1.1528    -2.3000     0.9313 H            1    LIG   0.0000
  32 H            1.7894     2.0684    -0.9821 H            1    LIG   0.0000
  33 H            2.6367     4.4023    -0.5762 H            1    LIG   0.0000
  34 H            2.6778     6.6716     3.5020 H            1    LIG   0.0000
  35 H            2.5853     5.8028     6.1862 H            1    LIG   0.0000
  36 H            0.2435     5.8336     5.8538 H            1    LIG   0.0000
  37 H            0.3270     7.3901     5.3671 H            1    LIG   0.0000
  38 H            0.9947     6.4574     8.0146 H            1    LIG   0.0000
  39 H           -0.3505     7.3023     7.6363 H            1    LIG   0.0000
  40 H            1.3113     8.7464     8.5518 H            1    LIG   0.0000
  41 H            0.9799     9.1616     7.0076 H            1    LIG   0.0000
  42 H            3.3260     9.1328     7.3401 H            1    LIG   0.0000
  43 H            3.2451     7.5786     7.8347 H            1    LIG   0.0000
  44 H            2.5857     8.5019     5.1825 H            1    LIG   0.0000
  45 H            3.9242     7.6497     5.5685 H            1    LIG   0.0000
  46 H            0.6195     2.0719     5.0786 H            1    LIG   0.0000
  47 H           -0.4916     3.0154     1.2885 H            1    LIG   0.0000
  48 H           -1.8620    -0.3360     0.0101 H            1    LIG   0.0000
@<TRIPOS>BOND
   1        1        2 1
   2        2        3 1
   3        3        4 1
   4        4        5 1
   5        5        6 1
   6        6        7 1
   7        7        8 2
   8        8        9 1
   9        9       10 ar
  10       10       11 1
  11       11       12 1
  12       12       13 1
  13       13       14 1
  14       14       15 1
  15       15       16 1
  16       16       17 1
  17       17       12 1
  18       10       18 ar
  19       18       19 ar
  20       19       20 ar
  21       20       21 ar
  22       21        9 ar
  23       21        6 1
  24        5       22 1
  25       22       23 1
  26       22       24 1
  27       24        3 1
  28       24       25 1
  29        3       26 1
  30       22       27 1
  31       24       28 1
  32        1       29 1
  33        2       30 1
  34        2       31 1
  35        5       32 1
  36        7       33 1
  37       11       34 1
  38       12       35 1
  39       13       36 1
  40       13       37 1
  41       14       38 1
  42       14       39 1
  43       15       40 1
  44       15       41 1
  45       16       42 1
  46       16       43 1
  47       17       44 1
  48       17       45 1
  49       19       46 1
  50       23       47 1
  51       25       48 1

@<TRIPOS>MOLECULE
CHEMBL85549
  48   51
SMALL
USER_CHARGES
@<TRIPOS>ATOM
   1 O1           1.9764    -1.8037    -0.8118 O.3          1    LIG   0.0000
   2 C2           1.8141    -1.6328     0.5885 C.3          1    LIG   0.0000
   3 C3           1.3094    -0.2274     0.8722 C.3          1    LIG   0.0000
   4 O4           2.2595     0.6945     0.3793 O.3          1    LIG   0.0000
   5 C5           1.5538     1.8563    -0.0337 C.3          1    LIG   0.0000
   6 N6           1.8323     3.0253     0.8117 N.pl3        1    LIG   0.0000
   7 C7           2.3682     4.1962     0.3648 C.2          1    LIG   0.0000
   8 N8           2.4677     5.0047     1.3957 N.2          1    LIG   0.0000
   9 C9           2.0033     4.3675     2.5106 C.ar         1    LIG   0.0000
  10 C10          1.8872     4.7684     3.8381 C.ar         1    LIG   0.0000
  11 N11          2.3039     6.0562     4.1959 N.pl3        1    LIG   0.0000
  12 C12          2.1917     6.5036     5.5912 C.3          1    LIG   0.0000
  13 C13          3.1932     5.7644     6.4639 C.3          1    LIG   0.0000
  14 C14          3.0822     6.2294     7.9070 C.3          1    LIG   0.0000
  15 C15          1.6697     5.9850     8.4130 C.3          1    LIG   0.0000
  16 C16          0.6646     6.7292     7.5484 C.3          1    LIG   0.0000
  17 C17          0.7796     6.2705     6.1035 C.3          1    LIG   0.0000
  18 N18          1.3841     3.9296     4.7563 N.ar         1    LIG   0.0000
  19 C19          0.9908     2.6989     4.3938 C.ar         1    LIG   0.0000
  20 N20          1.0949     2.3073     3.1131 N.ar         1    LIG   0.0000
  21 C21          1.5924     3.1057     2.1524 C.ar         1    LIG   0.0000
  22 C22          0.0701     1.5522     0.0613 C.3          1    LIG   0.0000
  23 O23         -0.4872     2.0154     1.2823 O.3          1    LIG   0.0000
  24 C24          0.0937     0.0406     0.0147 C.3          1    LIG   0.0000
  25 O25         -1.0732    -0.5264     0.5945 O.3          1    LIG   0.0000
  26 H            1.1205    -0.0866     1.8440 H            1    LIG   0.0000
  27 H           -0.4237     1.9274    -0.7232 H            1    LIG   0.0000
  28 H            0.2302    -0.2899    -0.9191 H            1    LIG   0.0000
  29 H            2.3084    -2.7284    -0.9985 H            1    LIG   0.0000
  30 H            2.6931    -1.7698     1.0451 H            1    LIG   0.0000
  31 H            1.1528    -2.3000     0.9313 H            1    LIG   0.0000
  32 H            1.7894     2.0684    -0.9821 H            1    LIG   0.0000
  33 H            2.6367     4.4023    -0.5762 H            1    LIG   0.0000
  34 H            2.6778     6.6716     3.5020 H            1    LIG   0.0000
  35 H            2.3909     7.4827     5.6319 H            1    LIG   0.0000
  36 H            4.1182     5.9450     6.1296 H            1    LIG   0.0000
  37 H            3.0083     4.7826     6.4187 H            1    LIG   0.0000
  38 H            3.2903     7.2061     7.9592 H            1    LIG   0.0000
  39 H            3.7311     5.7197     8.4720 H            1    LIG   0.0000
  40 H            1.5965     6.3081     9.3565 H            1    LIG   0.0000
  41 H            1.4720     5.0053     8.3799 H            1    LIG   0.0000
  42 H           -0.2598     6.5442     7.8817 H            1    LIG   0.0000
  43 H            0.8471     7.7111     7.5994 H            1    LIG   0.0000
  44 H            0.5646     5.2955     6.0481 H            1    LIG   0.0000
  45 H            0.1343     6.7867     5.5404 H            1    LIG   0.0000
  46 H            0.6195     2.0719     5.0786 H            1    LIG   0.0000
  47 H           -0.4916     3.0154     1.2885 H            1    LIG   0.0000
  48 H           -1.8620    -0.3360     0.0101 H            1    LIG   0.0000
@<TRIPOS>BOND
   1        1        2 1
   2        2        3 1
   3        3        4 1
   4        4        5 1
   5        5        6 1
   6        6        7 1
   7        7        8 2
   8        8        9 1
   9        9       10 ar
  10       10       11 1
  11       11       12 1
  12       12       13 1
  13       13       14 1
  14       14       15 1
  15       15       16 1
  16       16       17 1
  17       17       12 1
  18       10       18 ar
  19       18       19 ar
  20       19       20 ar
  21       20       21 ar
  22       21        9 ar
  23       21        6 1
  24        5       22 1
  25       22       23 1
  26       22       24 1
  27       24        3 1
  28       24       25 1
  29        3       26 1
  30       22       27 1
  31       24       28 1
  32        1       29 1
  33        2       30 1
  34        2       31 1
  35        5       32 1
  36        7       33 1
  37       11       34 1
  38       12       35 1
  39       13       36 1
  40       13       37 1
  41       14       38 1
  42       14       39 1
  43       15       40 1
  44       15       41 1
  45       16       42 1
  46       16       43 1
  47       17       44 1
  48       17       45 1
  49       19       46 1
  50       23       47 1
  51       25       48 1

@<TRIPOS>MOLECULE
CHEMBL85549
  48   51
SMALL
USER_CHARGES
@<TRIPOS>ATOM
   1 O1           1.9764    -1.8037    -0.8118 O.3          1    LIG   0.0000
   2 C2           1.8141    -1.6328     0.5885 C.3          1    LIG   0.0000
   3 C3           1.3094    -0.2274     0.8722 C.3          1    LIG   0.0000
   4 O4           2.2595     0.6945     0.3793 O.3          1    LIG   0.0000
   5 C5           1.5538     1.8563    -0.0337 C.3          1    LIG   0.0000
   6 N6           1.8323     3.0253     0.8117 N.pl3        1    LIG   0.0000
   7 C7           2.3682     4.1962     0.3648 C.2          1    LIG   0.0000
   8 N8           2.4677     5.0047     1.3957 N.2          1    LIG   0.0000
   9 C9           2.0033     4.3675     2.5106 C.ar         1    LIG   0.0000
  10 C10          1.8872     4.7684     3.8381 C.ar         1    LIG   0.0000
  11 N11          2.3039     6.0562     4.1959 N.pl3        1    LIG   0.0000
  12 C12          2.1917     6.5036     5.5912 C.3          1    LIG   0.0000
  13 C13          2.7043     7.9280     5.7308 C.3          1    LIG   0.0000
  14 C14          2.5845     8.3945     7.1728 C.3          1    LIG   0.0000
  15 C15          3.3777     7.4640     8.0761 C.3          1    LIG   0.0000
  16 C16          2.8632     6.0393     7.9463 C.3          1    LIG   0.0000
  17 C17          2.9755     5.5740     6.5034 C.3          1    LIG   0.0000
  18 N18          1.3841     3.9296     4.7563 N.ar         1    LIG   0.0000
  19 C19          0.9908     2.6989     4.3938 C.ar         1    LIG   0.0000
  20 N20          1.0949     2.3073     3.1131 N.ar         1    LIG   0.0000
  21 C21          1.5924     3.1057     2.1524 C.ar         1    LIG   0.0000
  22 C22          0.0701     1.5522     0.0613 C.3          1    LIG   0.0000
  23 O23         -0.4872     2.0154     1.2823 O.3          1    LIG   0.0000
  24 C24          0.0937     0.0406     0.0147 C.3          1    LIG   0.0000
  25 O25         -1.0732    -0.5264     0.5945 O.3          1    LIG   0.0000
  26 H            1.1205    -0.0866     1.8440 H            1    LIG   0.0000
  27 H           -0.4237     1.9274    -0.7232 H            1    LIG   0.0000
  28 H            0.2302    -0.2899    -0.9191 H            1    LIG   0.0000
  29 H            2.3084    -2.7284    -0.9985 H            1    LIG   0.0000
  30 H            2.6931    -1.7698     1.0451 H            1    LIG   0.0000
  31 H            1.1528    -2.3000     0.9313 H            1    LIG   0.0000
  32 H            1.7894     2.0684    -0.9821 H            1    LIG   0.0000
  33 H            2.6367     4.4023    -0.5762 H            1    LIG   0.0000
  34 H            2.6778     6.6716     3.5020 H            1    LIG   0.0000
  35 H            1.2287     6.4808     5.8597 H            1    LIG   0.0000
  36 H            2.1652     8.5314     5.1432 H            1    LIG   0.0000
  37 H            3.6641     7.9616     5.4521 H            1    LIG   0.0000
  38 H            1.6229     8.3851     7.4470 H            1    LIG   0.0000
  39 H            2.9450     9.3239     7.2531 H            1    LIG   0.0000
  40 H            3.2820     7.7644     9.0251 H            1    LIG   0.0000
  41 H            4.3422     7.4919     7.8133 H            1    LIG   0.0000
  42 H            3.4059     5.4369     8.5316 H            1    LIG   0.0000
  43 H            1.9051     6.0062     8.2311 H            1    LIG   0.0000
  44 H            3.9372     5.5756     6.2295 H            1    LIG   0.0000
  45 H            2.6082     4.6472     6.4254 H            1    LIG   0.0000
  46 H            0.6195     2.0719     5.0786 H            1    LIG   0.0000
  47 H           -0.4916     3.0154     1.2885 H            1    LIG   0.0000
  48 H           -1.8620    -0.3360     0.0101 H            1    LIG   0.0000
@<TRIPOS>BOND
   1        1        2 1
   2        2        3 1
   3        3        4 1
   4        4        5 1
   5        5        6 1
   6        6        7 1
   7        7        8 2
   8        8        9 1
   9        9       10 ar
  10       10       11 1
  11       11       12 1
  12       12       13 1
  13       13       14 1
  14       14       15 1
  15       15       16 1
  16       16       17 1
  17       17       12 1
  18       10       18 ar
  19       18       19 ar
  20       19       20 ar
  21       20       21 ar
  22       21        9 ar
  23       21        6 1
  24        5       22 1
  25       22       23 1
  26       22       24 1
  27       24        3 1
  28       24       25 1
  29        3       26 1
  30       22       27 1
  31       24       28 1
  32        1       29 1
  33        2       30 1
  34        2       31 1
  35        5       32 1
  36        7       33 1
  37       11       34 1
  38       12       35 1
  39       13       36 1
  40       13       37 1
  41       14       38 1
  42       14       39 1
  43       15       40 1
  44       15       41 1
  45       16       42 1
  46       16       43 1
  47       17       44 1
  48       17       45 1
  49       19       46 1
  50       23       47 1
  51       25       48 1

@<TRIPOS>MOLECULE
CHEMBL85549
  48   51
SMALL
USER_CHARGES
@<TRIPOS>ATOM
   1 O1           1.9764    -1.8037    -0.8118 O.3          1    LIG   0.0000
   2 C2           1.8141    -1.6328     0.5885 C.3          1    LIG   0.0000
   3 C3           1.3094    -0.2274     0.8722 C.3          1    LIG   0.0000
   4 O4           2.2595     0.6945     0.3793 O.3          1    LIG   0.0000
   5 C5           1.5538     1.8563    -0.0337 C.3          1    LIG   0.0000
   6 N6           1.8323     3.0253     0.8117 N.pl3        1    LIG   0.0000
   7 C7           2.3682     4.1962     0.3648 C.2          1    LIG   0.0000
   8 N8           2.4677     5.0047     1.3957 N.2          1    LIG   0.0000
   9 C9           2.0033     4.3675     2.5106 C.ar         1    LIG   0.0000
  10 C10          1.8872     4.7684     3.8381 C.ar         1    LIG   0.0000
  11 N11          2.3039     6.0562     4.1959 N.pl3        1    LIG   0.0000
  12 C12          2.1917     6.5037     5.5914 C.3          1    LIG   0.0000
  13 C13          0.7307     6.6984     5.9637 C.3          1    LIG   0.0000
  14 C14          0.6187     7.1550     7.4092 C.3          1    LIG   0.0000
  15 C15          1.2545     6.1305     8.3353 C.3          1    LIG   0.0000
  16 C16          2.7162     5.9447     7.9600 C.3          1    LIG   0.0000
  17 C17          2.8377     5.4845     6.5160 C.3          1    LIG   0.0000
  18 N18          1.3841     3.9296     4.7563 N.ar         1    LIG   0.0000
  19 C19          0.9908     2.6989     4.3938 C.ar         1    LIG   0.0000
  20 N20          1.0949     2.3073     3.1131 N.ar         1    LIG   0.0000
  21 C21          1.5924     3.1057     2.1524 C.ar         1    LIG   0.0000
  22 C22          0.0701     1.5522     0.0613 C.3          1    LIG   0.0000
  23 O23         -0.4872     2.0154     1.2823 O.3          1    LIG   0.0000
  24 C24          0.0937     0.0406     0.0147 C.3          1    LIG   0.0000
  25 O25         -1.0732    -0.5264     0.5945 O.3          1    LIG   0.0000
  26 H            1.1205    -0.0866     1.8440 H            1    LIG   0.0000
  27 H           -0.4237     1.9274    -0.7232 H            1    LIG   0.0000
  28 H            0.2302    -0.2899    -0.9191 H            1    LIG   0.0000
  29 H            2.3084    -2.7284    -0.9985 H            1    LIG   0.0000
  30 H            2.6931    -1.7698     1.0451 H            1    LIG   0.0000
  31 H            1.1528    -2.3000     0.9313 H            1    LIG   0.0000
  32 H            1.7894     2.0684    -0.9821 H            1    LIG   0.0000
  33 H            2.6367     4.4023    -0.5762 H            1    LIG   0.0000
  34 H            2.6778     6.6716     3.5020 H            1    LIG   0.0000
  35 H            2.6689     7.3769     5.6897 H            1    LIG   0.0000
  36 H            0.2421     5.8332     5.8509 H            1    LIG   0.0000
  37 H            0.3261     7.3902     5.3656 H            1    LIG   0.0000
  38 H           -0.3465     7.2616     7.6479 H            1    LIG   0.0000
  39 H            1.0873     8.0319     7.5157 H            1    LIG   0.0000
  40 H            0.7743     5.2578     8.2465 H            1    LIG   0.0000
  41 H            1.1914     6.4511     9.2804 H            1    LIG   0.0000
  42 H            3.1978     6.8141     8.0705 H            1    LIG   0.0000
  43 H            3.1259     5.2580     8.5604 H            1    LIG   0.0000
  44 H            3.8045     5.3881     6.2792 H            1    LIG   0.0000
  45 H            2.3788     4.6025     6.4095 H            1    LIG   0.0000
  46 H            0.6195     2.0719     5.0786 H            1    LIG   0.0000
  47 H           -0.4916     3.0154     1.2885 H            1    LIG   0.0000
  48 H           -1.8620    -0.3360     0.0101 H            1    LIG   0.0000
@<TRIPOS>BOND
   1        1        2 1
   2        2        3 1
   3        3        4 1
   4        4        5 1
   5        5        6 1
   6        6        7 1
   7        7        8 2
   8        8        9 1
   9        9       10 ar
  10       10       11 1
  11       11       12 1
  12       12       13 1
  13       13       14 1
  14       14       15 1
  15       15       16 1
  16       16       17 1
  17       17       12 1
  18       10       18 ar
  19       18       19 ar
  20       19       20 ar
  21       20       21 ar
  22       21        9 ar
  23       21        6 1
  24        5       22 1
  25       22       23 1
  26       22       24 1
  27       24        3 1
  28       24       25 1
  29        3       26 1
  30       22       27 1
  31       24       28 1
  32        1       29 1
  33        2       30 1
  34        2       31 1
  35        5       32 1
  36        7       33 1
  37       11       34 1
  38       12       35 1
  39       13       36 1
  40       13       37 1
  41       14       38 1
  42       14       39 1
  43       15       40 1
  44       15       41 1
  45       16       42 1
  46       16       43 1
  47       17       44 1
  48       17       45 1
  49       19       46 1
  50       23       47 1
  51       25       48 1

@<TRIPOS>MOLECULE
CHEMBL85549
  48   51
SMALL
USER_CHARGES
@<TRIPOS>ATOM
   1 O1           1.9764    -1.8037    -0.8118 O.3          1    LIG   0.0000
   2 C2           1.8141    -1.6328     0.5885 C.3          1    LIG   0.0000
   3 C3           1.3094    -0.2274     0.8722 C.3          1    LIG   0.0000
   4 O4           2.2595     0.6945     0.3793 O.3          1    LIG   0.0000
   5 C5           1.5538     1.8563    -0.0337 C.3          1    LIG   0.0000
   6 N6           1.8323     3.0253     0.8117 N.pl3        1    LIG   0.0000
   7 C7           2.3682     4.1962     0.3648 C.2          1    LIG   0.0000
   8 N8           2.4677     5.0047     1.3957 N.2          1    LIG   0.0000
   9 C9           2.0033     4.3675     2.5106 C.ar         1    LIG   0.0000
  10 C10          1.8872     4.7684     3.8381 C.ar         1    LIG   0.0000
  11 N11          2.3039     6.0562     4.1959 N.pl3        1    LIG   0.0000
  12 C12          2.1917     6.5037     5.5914 C.3          1    LIG   0.0000
  13 C13          3.1941     5.7630     6.4617 C.3          1    LIG   0.0000
  14 C14          3.0792     6.2331     7.9027 C.3          1    LIG   0.0000
  15 C15          3.3287     7.7303     7.9891 C.3          1    LIG   0.0000
  16 C16          2.3196     8.4643     7.1202 C.3          1    LIG   0.0000
  17 C17          2.4298     8.0027     5.6758 C.3          1    LIG   0.0000
  18 N18          1.3841     3.9296     4.7563 N.ar         1    LIG   0.0000
  19 C19          0.9908     2.6989     4.3938 C.ar         1    LIG   0.0000
  20 N20          1.0949     2.3073     3.1131 N.ar         1    LIG   0.0000
  21 C21          1.5924     3.1057     2.1524 C.ar         1    LIG   0.0000
  22 C22          0.0701     1.5522     0.0613 C.3          1    LIG   0.0000
  23 O23         -0.4872     2.0154     1.2823 O.3          1    LIG   0.0000
  24 C24          0.0937     0.0406     0.0147 C.3          1    LIG   0.0000
  25 O25         -1.0732    -0.5264     0.5945 O.3          1    LIG   0.0000
  26 H            1.1205    -0.0866     1.8440 H            1    LIG   0.0000
  27 H           -0.4237     1.9274    -0.7232 H            1    LIG   0.0000
  28 H            0.2302    -0.2899    -0.9191 H            1    LIG   0.0000
  29 H            2.3084    -2.7284    -0.9985 H            1    LIG   0.0000
  30 H            2.6931    -1.7698     1.0451 H            1    LIG   0.0000
  31 H            1.1528    -2.3000     0.9313 H            1    LIG   0.0000
  32 H            1.7894     2.0684    -0.9821 H            1    LIG   0.0000
  33 H            2.6367     4.4023    -0.5762 H            1    LIG   0.0000
  34 H            2.6778     6.6716     3.5020 H            1    LIG   0.0000
  35 H            1.2688     6.3044     5.9210 H            1    LIG   0.0000
  36 H            4.1192     5.9429     6.1275 H            1    LIG   0.0000
  37 H            3.0088     4.7813     6.4179 H            1    LIG   0.0000
  38 H            3.7553     5.7530     8.4615 H            1    LIG   0.0000
  39 H            2.1610     6.0312     8.2436 H            1    LIG   0.0000
  40 H            4.2540     7.9329     7.6686 H            1    LIG   0.0000
  41 H            3.2315     8.0301     8.9381 H            1    LIG   0.0000
  42 H            1.3968     8.2766     7.4567 H            1    LIG   0.0000
  43 H            2.4979     9.4471     7.1666 H            1    LIG   0.0000
  44 H            1.7460     8.4786     5.1227 H            1    LIG   0.0000
  45 H            3.3439     8.2131     5.3294 H            1    LIG   0.0000
  46 H            0.6195     2.0719     5.0786 H            1    LIG   0.0000
  47 H           -0.4916     3.0154     1.2885 H            1    LIG   0.0000
  48 H           -1.8620    -0.3360     0.0101 H            1    LIG   0.0000
@<TRIPOS>BOND
   1        1        2 1
   2        2        3 1
   3        3        4 1
   4        4        5 1
   5        5        6 1
   6        6        7 1
   7        7        8 2
   8        8        9 1
   9        9       10 ar
  10       10       11 1
  11       11       12 1
  12       12       13 1
  13       13       14 1
  14       14       15 1
  15       15       16 1
  16       16       17 1
  17       17       12 1
  18       10       18 ar
  19       18       19 ar
  20       19       20 ar
  21       20       21 ar
  22       21        9 ar
  23       21        6 1
  24        5       22 1
  25       22       23 1
  26       22       24 1
  27       24        3 1
  28       24       25 1
  29        3       26 1
  30       22       27 1
  31       24       28 1
  32        1       29 1
  33        2       30 1
  34        2       31 1
  35        5       32 1
  36        7       33 1
  37       11       34 1
  38       12       35 1
  39       13       36 1
  40       13       37 1
  41       14       38 1
  42       14       39 1
  43       15       40 1
  44       15       41 1
  45       16       42 1
  46       16       43 1
  47       17       44 1
  48       17       45 1
  49       19       46 1
  50       23       47 1
  51       25       48 1

@<TRIPOS>MOLECULE
CHEMBL85549
  48   51
SMALL
USER_CHARGES
@<TRIPOS>ATOM
   1 O1           1.9764    -1.8037    -0.8118 O.3          1    LIG   0.0000
   2 C2           1.8141    -1.6328     0.5885 C.3          1    LIG   0.0000
   3 C3           1.3094    -0.2274     0.8722 C.3          1    LIG   0.0000
   4 O4           2.2595     0.6945     0.3793 O.3          1    LIG   0.0000
   5 C5           1.5538     1.8563    -0.0337 C.3          1    LIG   0.0000
   6 N6           1.8323     3.0253     0.8117 N.pl3        1    LIG   0.0000
   7 C7           2.3682     4.1962     0.3648 C.2          1    LIG   0.0000
   8 N8           2.4677     5.0047     1.3957 N.2          1    LIG   0.0000
   9 C9           2.0033     4.3675     2.5106 C.ar         1    LIG   0.0000
  10 C10          1.8872     4.7684     3.8381 C.ar         1    LIG   0.0000
  11 N11          2.3039     6.0562     4.1959 N.pl3        1    LIG   0.0000
  12 C12          2.1917     6.5037     5.5914 C.3          1    LIG   0.0000
  13 C13          2.7049     7.9280     5.7282 C.3          1    LIG   0.0000
  14 C14          2.5812     8.3891     7.1713 C.3          1    LIG   0.0000
  15 C15          1.1316     8.3178     7.6240 C.3          1    LIG   0.0000
  16 C16          0.6271     6.8899     7.4889 C.3          1    LIG   0.0000
  17 C17          0.7438     6.4212     6.0473 C.3          1    LIG   0.0000
  18 N18          1.3841     3.9296     4.7563 N.ar         1    LIG   0.0000
  19 C19          0.9908     2.6989     4.3938 C.ar         1    LIG   0.0000
  20 N20          1.0949     2.3073     3.1131 N.ar         1    LIG   0.0000
  21 C21          1.5924     3.1057     2.1524 C.ar         1    LIG   0.0000
  22 C22          0.0701     1.5522     0.0613 C.3          1    LIG   0.0000
  23 O23         -0.4872     2.0154     1.2823 O.3          1    LIG   0.0000
  24 C24          0.0937     0.0406     0.0147 C.3          1    LIG   0.0000
  25 O25         -1.0732    -0.5264     0.5945 O.3          1    LIG   0.0000
  26 H            1.1205    -0.0866     1.8440 H            1    LIG   0.0000
  27 H           -0.4237     1.9274    -0.7232 H            1    LIG   0.0000
  28 H            0.2302    -0.2899    -0.9191 H            1    LIG   0.0000
  29 H            2.3084    -2.7284    -0.9985 H            1    LIG   0.0000
  30 H            2.6931    -1.7698     1.0451 H            1    LIG   0.0000
  31 H            1.1528    -2.3000     0.9313 H            1    LIG   0.0000
  32 H            1.7894     2.0684    -0.9821 H            1    LIG   0.0000
  33 H            2.6367     4.4023    -0.5762 H            1    LIG   0.0000
  34 H            2.6778     6.6716     3.5020 H            1    LIG   0.0000
  35 H            2.7463     5.9040     6.1682 H            1    LIG   0.0000
  36 H            2.1665     8.5318     5.1403 H            1    LIG   0.0000
  37 H            3.6650     7.9620     5.4508 H            1    LIG   0.0000
  38 H            2.9041     9.3327     7.2452 H            1    LIG   0.0000
  39 H            3.1389     7.7993     7.7553 H            1    LIG   0.0000
  40 H            0.5748     8.9231     7.0553 H            1    LIG   0.0000
  41 H            1.0665     8.6051     8.5796 H            1    LIG   0.0000
  42 H            1.1723     6.2908     8.0754 H            1    LIG   0.0000
  43 H           -0.3313     6.8508     7.7716 H            1    LIG   0.0000
  44 H            0.4285     5.4746     5.9799 H            1    LIG   0.0000
  45 H            0.1786     7.0033     5.4628 H            1    LIG   0.0000
  46 H            0.6195     2.0719     5.0786 H            1    LIG   0.0000
  47 H           -0.4916     3.0154     1.2885 H            1    LIG   0.0000
  48 H           -1.8620    -0.3360     0.0101 H            1    LIG   0.0000
@<TRIPOS>BOND
   1        1        2 1
   2        2        3 1
   3        3        4 1
   4        4        5 1
   5        5        6 1
   6        6        7 1
   7        7        8 2
   8        8        9 1
   9        9       10 ar
  10       10       11 1
  11       11       12 1
  12       12       13 1
  13       13       14 1
  14       14       15 1
  15       15       16 1
  16       16       17 1
  17       17       12 1
  18       10       18 ar
  19       18       19 ar
  20       19       20 ar
  21       20       21 ar
  22       21        9 ar
  23       21        6 1
  24        5       22 1
  25       22       23 1
  26       22       24 1
  27       24        3 1
  28       24       25 1
  29        3       26 1
  30       22       27 1
  31       24       28 1
  32        1       29 1
  33        2       30 1
  34        2       31 1
  35        5       32 1
  36        7       33 1
  37       11       34 1
  38       12       35 1
  39       13       36 1
  40       13       37 1
  41       14       38 1
  42       14       39 1
  43       15       40 1
  44       15       41 1
  45       16       42 1
  46       16       43 1
  47       17       44 1
  48       17       45 1
  49       19       46 1
  50       23       47 1
  51       25       48 1

@<TRIPOS>MOLECULE
CHEMBL85549
  48   51
SMALL
USER_CHARGES
@<TRIPOS>ATOM
   1 O1           1.9764    -1.8037    -0.8118 O.3          1    LIG   0.0000
   2 C2           1.8141    -1.6328     0.5885 C.3          1    LIG   0.0000
   3 C3           1.3094    -0.2274     0.8722 C.3          1    LIG   0.0000
   4 O4           2.2595     0.6945     0.3793 O.3          1    LIG   0.0000
   5 C5           1.5538     1.8563    -0.0337 C.3          1    LIG   0.0000
   6 N6           1.8323     3.0253     0.8117 N.pl3        1    LIG   0.0000
   7 C7           2.6763     3.0257     1.8820 C.2          1    LIG   0.0000
   8 N8           2.6759     4.2392     2.3858 N.2          1    LIG   0.0000
   9 C9           1.8356     5.0276     1.6531 C.ar         1    LIG   0.0000
  10 C10          1.4802     6.3688     1.7590 C.ar         1    LIG   0.0000
  11 N11          2.0392     7.1389     2.7859 N.pl3        1    LIG   0.0000
  12 C12          1.6801     8.5576     2.9192 C.3          1    LIG   0.0000
  13 C13          2.2762     9.3619     1.7752 C.3          1    LIG   0.0000
  14 C14          1.9018    10.8293     1.9085 C.3          1    LIG   0.0000
  15 C15          2.4054    11.3639     3.2395 C.3          1    LIG   0.0000
  16 C16          1.8054    10.5680     4.3875 C.3          1    LIG   0.0000
  17 C17          2.1729     9.0991     4.2514 C.3          1    LIG   0.0000
  18 N18          0.6144     6.9099     0.8885 N.ar         1    LIG   0.0000
  19 C19          0.0888     6.1552    -0.0886 C.ar         1    LIG   0.0000
  20 N20          0.4317     4.8612    -0.2001 N.ar         1    LIG   0.0000
  21 C21          1.2930     4.2674     0.6445 C.ar         1    LIG   0.0000
  22 C22          0.0701     1.5522     0.0613 C.3          1    LIG   0.0000
  23 O23         -0.4872     2.0154     1.2823 O.3          1    LIG   0.0000
  24 C24          0.0937     0.0406     0.0147 C.3          1    LIG   0.0000
  25 O25         -1.0732    -0.5264     0.5945 O.3          1    LIG   0.0000
  26 H            1.1205    -0.0866     1.8440 H            1    LIG   0.0000
  27 H           -0.4237     1.9274    -0.7232 H            1    LIG   0.0000
  28 H            0.2302    -0.2899    -0.9191 H            1    LIG   0.0000
  29 H            2.3084    -2.7284    -0.9985 H            1    LIG   0.0000
  30 H            2.6931    -1.7698     1.0451 H            1    LIG   0.0000
  31 H            1.1528    -2.3000     0.9313 H            1    LIG   0.0000
  32 H            1.7894     2.0684    -0.9821 H            1    LIG   0.0000
  33 H            3.2003     2.2447     2.2219 H            1    LIG   0.0000
  34 H            2.6828     6.7234     3.4287 H            1    LIG   0.0000
  35 H            0.6842     8.6417     2.8866 H            1    LIG   0.0000
  36 H            1.9260     9.0099     0.9072 H            1    LIG   0.0000
  37 H            3.2721     9.2729     1.7934 H            1    LIG   0.0000
  38 H            0.9072    10.9244     1.8663 H            1    LIG   0.0000
  39 H            2.3182    11.3484     1.1621 H            1    LIG   0.0000
  40 H            2.1419    12.3243     3.3305 H            1    LIG   0.0000
  41 H            3.4020    11.2874     3.2702 H            1    LIG   0.0000
  42 H            2.1598    10.9189     5.2543 H            1    LIG   0.0000
  43 H            0.8100    10.6630     4.3714 H            1    LIG   0.0000
  44 H            3.1668     9.0011     4.3009 H            1    LIG   0.0000
  45 H            1.7495     8.5821     4.9954 H            1    LIG   0.0000
  46 H           -0.5596     6.5569    -0.7353 H            1    LIG   0.0000
  47 H           -0.4916     3.0154     1.2885 H            1    LIG   0.0000
  48 H           -1.8620    -0.3360     0.0101 H            1    LIG   0.0000
@<TRIPOS>BOND
   1        1        2 1
   2        2        3 1
   3        3        4 1
   4        4        5 1
   5        5        6 1
   6        6        7 1
   7        7        8 2
   8        8        9 1
   9        9       10 ar
  10       10       11 1
  11       11       12 1
  12       12       13 1
  13       13       14 1
  14       14       15 1
  15       15       16 1
  16       16       17 1
  17       17       12 1
  18       10       18 ar
  19       18       19 ar
  20       19       20 ar
  21       20       21 ar
  22       21        9 ar
  23       21        6 1
  24        5       22 1
  25       22       23 1
  26       22       24 1
  27       24        3 1
  28       24       25 1
  29        3       26 1
  30       22       27 1
  31       24       28 1
  32        1       29 1
  33        2       30 1
  34        2       31 1
  35        5       32 1
  36        7       33 1
  37       11       34 1
  38       12       35 1
  39       13       36 1
  40       13       37 1
  41       14       38 1
  42       14       39 1
  43       15       40 1
  44       15       41 1
  45       16       42 1
  46       16       43 1
  47       17       44 1
  48       17       45 1
  49       19       46 1
  50       23       47 1
  51       25       48 1

@<TRIPOS>MOLECULE
CHEMBL85549
  48   51
SMALL
USER_CHARGES
@<TRIPOS>ATOM
   1 O1           1.9764    -1.8037    -0.8118 O.3          1    LIG   0.0000
   2 C2           1.8141    -1.6328     0.5885 C.3          1    LIG   0.0000
   3 C3           1.3094    -0.2274     0.8722 C.3          1    LIG   0.0000
   4 O4           2.2595     0.6945     0.3793 O.3          1    LIG   0.0000
   5 C5           1.5538     1.8563    -0.0337 C.3          1    LIG   0.0000
   6 N6           1.8323     3.0253     0.8117 N.pl3        1    LIG   0.0000
   7 C7           2.6763     3.0257     1.8820 C.2          1    LIG   0.0000
   8 N8           2.6759     4.2392     2.3858 N.2          1    LIG   0.0000
   9 C9           1.8356     5.0276     1.6531 C.ar         1    LIG   0.0000
  10 C10          1.4802     6.3688     1.7590 C.ar         1    LIG   0.0000
  11 N11          2.0392     7.1389     2.7859 N.pl3        1    LIG   0.0000
  12 C12          1.6801     8.5576     2.9192 C.3          1    LIG   0.0000
  13 C13          0.2392     8.6952     3.3839 C.3          1    LIG   0.0000
  14 C14         -0.1328    10.1623     3.5272 C.3          1    LIG   0.0000
  15 C15          0.0545    10.8673     2.1935 C.3          1    LIG   0.0000
  16 C16          1.4964    10.7397     1.7285 C.3          1    LIG   0.0000
  17 C17          1.8721     9.2729     1.5918 C.3          1    LIG   0.0000
  18 N18          0.6144     6.9099     0.8885 N.ar         1    LIG   0.0000
  19 C19          0.0888     6.1552    -0.0886 C.ar         1    LIG   0.0000
  20 N20          0.4317     4.8612    -0.2001 N.ar         1    LIG   0.0000
  21 C21          1.2930     4.2674     0.6445 C.ar         1    LIG   0.0000
  22 C22          0.0701     1.5522     0.0613 C.3          1    LIG   0.0000
  23 O23         -0.4872     2.0154     1.2823 O.3          1    LIG   0.0000
  24 C24          0.0937     0.0406     0.0147 C.3          1    LIG   0.0000
  25 O25         -1.0732    -0.5264     0.5945 O.3          1    LIG   0.0000
  26 H            1.1205    -0.0866     1.8440 H            1    LIG   0.0000
  27 H           -0.4237     1.9274    -0.7232 H            1    LIG   0.0000
  28 H            0.2302    -0.2899    -0.9191 H            1    LIG   0.0000
  29 H            2.3084    -2.7284    -0.9985 H            1    LIG   0.0000
  30 H            2.6931    -1.7698     1.0451 H            1    LIG   0.0000
  31 H            1.1528    -2.3000     0.9313 H            1    LIG   0.0000
  32 H            1.7894     2.0684    -0.9821 H            1    LIG   0.0000
  33 H            3.2003     2.2447     2.2219 H            1    LIG   0.0000
  34 H            2.6828     6.7234     3.4287 H            1    LIG   0.0000
  35 H            2.2792     8.9782     3.6006 H            1    LIG   0.0000
  36 H            0.1331     8.2403     4.2681 H            1    LIG   0.0000
  37 H           -0.3658     8.2658     2.7134 H            1    LIG   0.0000
  38 H            0.4546    10.5891     4.2149 H            1    LIG   0.0000
  39 H           -1.0884    10.2372     3.8122 H            1    LIG   0.0000
  40 H           -0.1746    11.8352     2.2967 H            1    LIG   0.0000
  41 H           -0.5496    10.4524     1.5131 H            1    LIG   0.0000
  42 H            1.5996    11.1917     0.8425 H            1    LIG   0.0000
  43 H            2.0995    11.1749     2.3970 H            1    LIG   0.0000
  44 H            1.2908     8.8460     0.8991 H            1    LIG   0.0000
  45 H            2.8298     9.2016     1.3132 H            1    LIG   0.0000
  46 H           -0.5596     6.5569    -0.7353 H            1    LIG   0.0000
  47 H           -0.4916     3.0154     1.2885 H            1    LIG   0.0000
  48 H           -1.8620    -0.3360     0.0101 H            1    LIG   0.0000
@<TRIPOS>BOND
   1        1        2 1
   2        2        3 1
   3        3        4 1
   4        4        5 1
   5        5        6 1
   6        6        7 1
   7        7        8 2
   8        8        9 1
   9        9       10 ar
  10       10       11 1
  11       11       12 1
  12       12       13 1
  13       13       14 1
  14       14       15 1
  15       15       16 1
  16       16       17 1
  17       17       12 1
  18       10       18 ar
  19       18       19 ar
  20       19       20 ar
  21       20       21 ar
  22       21        9 ar
  23       21        6 1
  24        5       22 1
  25       22       23 1
  26       22       24 1
  27       24        3 1
  28       24       25 1
  29        3       26 1
  30       22       27 1
  31       24       28 1
  32        1       29 1
  33        2       30 1
  34        2       31 1
  35        5       32 1
  36        7       33 1
  37       11       34 1
  38       12       35 1
  39       13       36 1
  40       13       37 1
  41       14       38 1
  42       14       39 1
  43       15       40 1
  44       15       41 1
  45       16       42 1
  46       16       43 1
  47       17       44 1
  48       17       45 1
  49       19       46 1
  50       23       47 1
  51       25       48 1

@<TRIPOS>MOLECULE
CHEMBL85549
  48   51
SMALL
USER_CHARGES
@<TRIPOS>ATOM
   1 O1           1.9764    -1.8037    -0.8118 O.3          1    LIG   0.0000
   2 C2           1.8141    -1.6328     0.5885 C.3          1    LIG   0.0000
   3 C3           1.3094    -0.2274     0.8722 C.3          1    LIG   0.0000
   4 O4           2.2595     0.6945     0.3793 O.3          1    LIG   0.0000
   5 C5           1.5538     1.8563    -0.0337 C.3          1    LIG   0.0000
   6 N6           1.8323     3.0253     0.8117 N.pl3        1    LIG   0.0000
   7 C7           2.6763     3.0257     1.8820 C.2          1    LIG   0.0000
   8 N8           2.6759     4.2392     2.3858 N.2          1    LIG   0.0000
   9 C9           1.8356     5.0276     1.6531 C.ar         1    LIG   0.0000
  10 C10          1.4802     6.3688     1.7590 C.ar         1    LIG   0.0000
  11 N11          2.0392     7.1389     2.7859 N.pl3        1    LIG   0.0000
  12 C12          1.6801     8.5576     2.9192 C.3          1    LIG   0.0000
  13 C13          2.4099     9.1773     4.1002 C.3          1    LIG   0.0000
  14 C14          2.0437    10.6464     4.2369 C.3          1    LIG   0.0000
  15 C15          0.5410    10.7808     4.4238 C.3          1    LIG   0.0000
  16 C16         -0.1934    10.1699     3.2411 C.3          1    LIG   0.0000
  17 C17          0.1777     8.7025     3.0986 C.3          1    LIG   0.0000
  18 N18          0.6144     6.9099     0.8885 N.ar         1    LIG   0.0000
  19 C19          0.0888     6.1552    -0.0886 C.ar         1    LIG   0.0000
  20 N20          0.4317     4.8612    -0.2001 N.ar         1    LIG   0.0000
  21 C21          1.2930     4.2674     0.6445 C.ar         1    LIG   0.0000
  22 C22          0.0701     1.5522     0.0613 C.3          1    LIG   0.0000
  23 O23         -0.4872     2.0154     1.2823 O.3          1    LIG   0.0000
  24 C24          0.0937     0.0406     0.0147 C.3          1    LIG   0.0000
  25 O25         -1.0732    -0.5264     0.5945 O.3          1    LIG   0.0000
  26 H            1.1205    -0.0866     1.8440 H            1    LIG   0.0000
  27 H           -0.4237     1.9274    -0.7232 H            1    LIG   0.0000
  28 H            0.2302    -0.2899    -0.9191 H            1    LIG   0.0000
  29 H            2.3084    -2.7284    -0.9985 H            1    LIG   0.0000
  30 H            2.6931    -1.7698     1.0451 H            1    LIG   0.0000
  31 H            1.1528    -2.3000     0.9313 H            1    LIG   0.0000
  32 H            1.7894     2.0684    -0.9821 H            1    LIG   0.0000
  33 H            3.2003     2.2447     2.2219 H            1    LIG   0.0000
  34 H            2.6828     6.7234     3.4287 H            1    LIG   0.0000
  35 H            1.9521     9.0378     2.0853 H            1    LIG   0.0000
  36 H            3.3964     9.0953     3.9579 H            1    LIG   0.0000
  37 H            2.1526     8.6941     4.9370 H            1    LIG   0.0000
  38 H            2.3217    11.1372     3.4111 H            1    LIG   0.0000
  39 H            2.5139    11.0345     5.0295 H            1    LIG   0.0000
  40 H            0.3027    11.7493     4.4959 H            1    LIG   0.0000
  41 H            0.2690    10.3073     5.2616 H            1    LIG   0.0000
  42 H           -1.1795    10.2493     3.3869 H            1    LIG   0.0000
  43 H            0.0604    10.6580     2.4060 H            1    LIG   0.0000
  44 H           -0.1063     8.2085     3.9204 H            1    LIG   0.0000
  45 H           -0.2889     8.3194     2.3014 H            1    LIG   0.0000
  46 H           -0.5596     6.5569    -0.7353 H            1    LIG   0.0000
  47 H           -0.4916     3.0154     1.2885 H            1    LIG   0.0000
  48 H           -1.8620    -0.3360     0.0101 H            1    LIG   0.0000
@<TRIPOS>BOND
   1        1        2 1
   2        2        3 1
   3        3        4 1
   4        4        5 1
   5        5        6 1
   6        6        7 1
   7        7        8 2
   8        8        9 1
   9        9       10 ar
  10       10       11 1
  11       11       12 1
  12       12       13 1
  13       13       14 1
  14       14       15 1
  15       15       16 1
  16       16       17 1
  17       17       12 1
  18       10       18 ar
  19       18       19 ar
  20       19       20 ar
  21       20       21 ar
  22       21        9 ar
  23       21        6 1
  24        5       22 1
  25       22       23 1
  26       22       24 1
  27       24        3 1
  28       24       25 1
  29        3       26 1
  30       22       27 1
  31       24       28 1
  32        1       29 1
  33        2       30 1
  34        2       31 1
  35        5       32 1
  36        7       33 1
  37       11       34 1
  38       12       35 1
  39       13       36 1
  40       13       37 1
  41       14       38 1
  42       14       39 1
  43       15       40 1
  44       15       41 1
  45       16       42 1
  46       16       43 1
  47       17       44 1
  48       17       45 1
  49       19       46 1
  50       23       47 1
  51       25       48 1

@<TRIPOS>MOLECULE
CHEMBL85549
  48   51
SMALL
USER_CHARGES
@<TRIPOS>ATOM
   1 O1           1.9764    -1.8037    -0.8118 O.3          1    LIG   0.0000
   2 C2           1.8141    -1.6328     0.5885 C.3          1    LIG   0.0000
   3 C3           1.3094    -0.2274     0.8722 C.3          1    LIG   0.0000
   4 O4           2.2595     0.6945     0.3793 O.3          1    LIG   0.0000
   5 C5           1.5538     1.8563    -0.0337 C.3          1    LIG   0.0000
   6 N6           1.8323     3.0253     0.8117 N.pl3        1    LIG   0.0000
   7 C7           2.6763     3.0257     1.8820 C.2          1    LIG   0.0000
   8 N8           2.6759     4.2392     2.3858 N.2          1    LIG   0.0000
   9 C9           1.8356     5.0276     1.6531 C.ar         1    LIG   0.0000
  10 C10          1.4802     6.3688     1.7590 C.ar         1    LIG   0.0000
  11 N11          2.0392     7.1389     2.7859 N.pl3        1    LIG   0.0000
  12 C12          1.6801     8.5578     2.9193 C.3          1    LIG   0.0000
  13 C13          2.2773     9.3596     1.7742 C.3          1    LIG   0.0000
  14 C14          1.8984    10.8252     1.9123 C.3          1    LIG   0.0000
  15 C15          0.3859    10.9795     1.9158 C.3          1    LIG   0.0000
  16 C16         -0.2035    10.1790     3.0662 C.3          1    LIG   0.0000
  17 C17          0.1677     8.7105     2.9344 C.3          1    LIG   0.0000
  18 N18          0.6144     6.9099     0.8885 N.ar         1    LIG   0.0000
  19 C19          0.0888     6.1552    -0.0886 C.ar         1    LIG   0.0000
  20 N20          0.4317     4.8612    -0.2001 N.ar         1    LIG   0.0000
  21 C21          1.2930     4.2674     0.6445 C.ar         1    LIG   0.0000
  22 C22          0.0701     1.5522     0.0613 C.3          1    LIG   0.0000
  23 O23         -0.4872     2.0154     1.2823 O.3          1    LIG   0.0000
  24 C24          0.0937     0.0406     0.0147 C.3          1    LIG   0.0000
  25 O25         -1.0732    -0.5264     0.5945 O.3          1    LIG   0.0000
  26 H            1.1205    -0.0866     1.8440 H            1    LIG   0.0000
  27 H           -0.4237     1.9274    -0.7232 H            1    LIG   0.0000
  28 H            0.2302    -0.2899    -0.9191 H            1    LIG   0.0000
  29 H            2.3084    -2.7284    -0.9985 H            1    LIG   0.0000
  30 H            2.6931    -1.7698     1.0451 H            1    LIG   0.0000
  31 H            1.1528    -2.3000     0.9313 H            1    LIG   0.0000
  32 H            1.7894     2.0684    -0.9821 H            1    LIG   0.0000
  33 H            3.2003     2.2447     2.2219 H            1    LIG   0.0000
  34 H            2.6828     6.7234     3.4287 H            1    LIG   0.0000
  35 H            2.0481     8.9042     3.7822 H            1    LIG   0.0000
  36 H            1.9278     9.0077     0.9059 H            1    LIG   0.0000
  37 H            3.2733     9.2720     1.7927 H            1    LIG   0.0000
  38 H            2.2809    11.3389     1.1442 H            1    LIG   0.0000
  39 H            2.2687    11.1826     2.7697 H            1    LIG   0.0000
  40 H            0.0146    10.6424     1.0507 H            1    LIG   0.0000
  41 H            0.1498    11.9449     2.0263 H            1    LIG   0.0000
  42 H            0.1534    10.5328     3.9308 H            1    LIG   0.0000
  43 H           -1.1993    10.2695     3.0546 H            1    LIG   0.0000
  44 H           -0.2090     8.2026     3.7090 H            1    LIG   0.0000
  45 H           -0.2106     8.3482     2.0825 H            1    LIG   0.0000
  46 H           -0.5596     6.5569    -0.7353 H            1    LIG   0.0000
  47 H           -0.4916     3.0154     1.2885 H            1    LIG   0.0000
  48 H           -1.8620    -0.3360     0.0101 H            1    LIG   0.0000
@<TRIPOS>BOND
   1        1        2 1
   2        2        3 1
   3        3        4 1
   4        4        5 1
   5        5        6 1
   6        6        7 1
   7        7        8 2
   8        8        9 1
   9        9       10 ar
  10       10       11 1
  11       11       12 1
  12       12       13 1
  13       13       14 1
  14       14       15 1
  15       15       16 1
  16       16       17 1
  17       17       12 1
  18       10       18 ar
  19       18       19 ar
  20       19       20 ar
  21       20       21 ar
  22       21        9 ar
  23       21        6 1
  24        5       22 1
  25       22       23 1
  26       22       24 1
  27       24        3 1
  28       24       25 1
  29        3       26 1
  30       22       27 1
  31       24       28 1
  32        1       29 1
  33        2       30 1
  34        2       31 1
  35        5       32 1
  36        7       33 1
  37       11       34 1
  38       12       35 1
  39       13       36 1
  40       13       37 1
  41       14       38 1
  42       14       39 1
  43       15       40 1
  44       15       41 1
  45       16       42 1
  46       16       43 1
  47       17       44 1
  48       17       45 1
  49       19       46 1
  50       23       47 1
  51       25       48 1

@<TRIPOS>MOLECULE
CHEMBL85549
  48   51
SMALL
USER_CHARGES
@<TRIPOS>ATOM
   1 O1           1.9764    -1.8037    -0.8118 O.3          1    LIG   0.0000
   2 C2           1.8141    -1.6328     0.5885 C.3          1    LIG   0.0000
   3 C3           1.3094    -0.2274     0.8722 C.3          1    LIG   0.0000
   4 O4           2.2595     0.6945     0.3793 O.3          1    LIG   0.0000
   5 C5           1.5538     1.8563    -0.0337 C.3          1    LIG   0.0000
   6 N6           1.8323     3.0253     0.8117 N.pl3        1    LIG   0.0000
   7 C7           2.6763     3.0257     1.8820 C.2          1    LIG   0.0000
   8 N8           2.6759     4.2392     2.3858 N.2          1    LIG   0.0000
   9 C9           1.8356     5.0276     1.6531 C.ar         1    LIG   0.0000
  10 C10          1.4802     6.3688     1.7590 C.ar         1    LIG   0.0000
  11 N11          2.0392     7.1389     2.7859 N.pl3        1    LIG   0.0000
  12 C12          1.6801     8.5578     2.9193 C.3          1    LIG   0.0000
  13 C13          0.2390     8.6925     3.3839 C.3          1    LIG   0.0000
  14 C14         -0.1264    10.1611     3.5267 C.3          1    LIG   0.0000
  15 C15          0.8015    10.8398     4.5214 C.3          1    LIG   0.0000
  16 C16          2.2400    10.7051     4.0476 C.3          1    LIG   0.0000
  17 C17          2.6155     9.2388     3.9053 C.3          1    LIG   0.0000
  18 N18          0.6144     6.9099     0.8885 N.ar         1    LIG   0.0000
  19 C19          0.0888     6.1552    -0.0886 C.ar         1    LIG   0.0000
  20 N20          0.4317     4.8612    -0.2001 N.ar         1    LIG   0.0000
  21 C21          1.2930     4.2674     0.6445 C.ar         1    LIG   0.0000
  22 C22          0.0701     1.5522     0.0613 C.3          1    LIG   0.0000
  23 O23         -0.4872     2.0154     1.2823 O.3          1    LIG   0.0000
  24 C24          0.0937     0.0406     0.0147 C.3          1    LIG   0.0000
  25 O25         -1.0732    -0.5264     0.5945 O.3          1    LIG   0.0000
  26 H            1.1205    -0.0866     1.8440 H            1    LIG   0.0000
  27 H           -0.4237     1.9274    -0.7232 H            1    LIG   0.0000
  28 H            0.2302    -0.2899    -0.9191 H            1    LIG   0.0000
  29 H            2.3084    -2.7284    -0.9985 H            1    LIG   0.0000
  30 H            2.6931    -1.7698     1.0451 H            1    LIG   0.0000
  31 H            1.1528    -2.3000     0.9313 H            1    LIG   0.0000
  32 H            1.7894     2.0684    -0.9821 H            1    LIG   0.0000
  33 H            3.2003     2.2447     2.2219 H            1    LIG   0.0000
  34 H            2.6828     6.7234     3.4287 H            1    LIG   0.0000
  35 H            1.7742     8.9998     2.0272 H            1    LIG   0.0000
  36 H            0.1322     8.2373     4.2678 H            1    LIG   0.0000
  37 H           -0.3665     8.2643     2.7131 H            1    LIG   0.0000
  38 H           -1.0696    10.2367     3.8503 H            1    LIG   0.0000
  39 H           -0.0422    10.6102     2.6372 H            1    LIG   0.0000
  40 H            0.7039    10.4065     5.4174 H            1    LIG   0.0000
  41 H            0.5633    11.8085     4.5920 H            1    LIG   0.0000
  42 H            2.3389    11.1582     3.1616 H            1    LIG   0.0000
  43 H            2.8481    11.1380     4.7131 H            1    LIG   0.0000
  44 H            3.5560     9.1682     3.5729 H            1    LIG   0.0000
  45 H            2.5422     8.7899     4.7959 H            1    LIG   0.0000
  46 H           -0.5596     6.5569    -0.7353 H            1    LIG   0.0000
  47 H           -0.4916     3.0154     1.2885 H            1    LIG   0.0000
  48 H           -1.8620    -0.3360     0.0101 H            1    LIG   0.0000
@<TRIPOS>BOND
   1        1        2 1
   2        2        3 1
   3        3        4 1
   4        4        5 1
   5        5        6 1
   6        6        7 1
   7        7        8 2
   8        8        9 1
   9        9       10 ar
  10       10       11 1
  11       11       12 1
  12       12       13 1
  13       13       14 1
  14       14       15 1
  15       15       16 1
  16       16       17 1
  17       17       12 1
  18       10       18 ar
  19       18       19 ar
  20       19       20 ar
  21       20       21 ar
  22       21        9 ar
  23       21        6 1
  24        5       22 1
  25       22       23 1
  26       22       24 1
  27       24        3 1
  28       24       25 1
  29        3       26 1
  30       22       27 1
  31       24       28 1
  32        1       29 1
  33        2       30 1
  34        2       31 1
  35        5       32 1
  36        7       33 1
  37       11       34 1
  38       12       35 1
  39       13       36 1
  40       13       37 1
  41       14       38 1
  42       14       39 1
  43       15       40 1
  44       15       41 1
  45       16       42 1
  46       16       43 1
  47       17       44 1
  48       17       45 1
  49       19       46 1
  50       23       47 1
  51       25       48 1

@<TRIPOS>MOLECULE
CHEMBL85549
  48   51
SMALL
USER_CHARGES
@<TRIPOS>ATOM
   1 O1           1.9764    -1.8037    -0.8118 O.3          1    LIG   0.0000
   2 C2           1.8141    -1.6328     0.5885 C.3          1    LIG   0.0000
   3 C3           1.3094    -0.2274     0.8722 C.3          1    LIG   0.0000
   4 O4           2.2595     0.6945     0.3793 O.3          1    LIG   0.0000
   5 C5           1.5538     1.8563    -0.0337 C.3          1    LIG   0.0000
   6 N6           1.8323     3.0253     0.8117 N.pl3        1    LIG   0.0000
   7 C7           2.6763     3.0257     1.8820 C.2          1    LIG   0.0000
   8 N8           2.6759     4.2392     2.3858 N.2          1    LIG   0.0000
   9 C9           1.8356     5.0276     1.6531 C.ar         1    LIG   0.0000
  10 C10          1.4802     6.3688     1.7590 C.ar         1    LIG   0.0000
  11 N11          2.0392     7.1389     2.7859 N.pl3        1    LIG   0.0000
  12 C12          1.6801     8.5578     2.9193 C.3          1    LIG   0.0000
  13 C13          2.4111     9.1748     4.1006 C.3          1    LIG   0.0000
  14 C14          2.0420    10.6436     4.2312 C.3          1    LIG   0.0000
  15 C15          2.3991    11.3912     2.9565 C.3          1    LIG   0.0000
  16 C16          1.6607    10.7716     1.7806 C.3          1    LIG   0.0000
  17 C17          2.0267     9.3026     1.6402 C.3          1    LIG   0.0000
  18 N18          0.6144     6.9099     0.8885 N.ar         1    LIG   0.0000
  19 C19          0.0888     6.1552    -0.0886 C.ar         1    LIG   0.0000
  20 N20          0.4317     4.8612    -0.2001 N.ar         1    LIG   0.0000
  21 C21          1.2930     4.2674     0.6445 C.ar         1    LIG   0.0000
  22 C22          0.0701     1.5522     0.0613 C.3          1    LIG   0.0000
  23 O23         -0.4872     2.0154     1.2823 O.3          1    LIG   0.0000
  24 C24          0.0937     0.0406     0.0147 C.3          1    LIG   0.0000
  25 O25         -1.0732    -0.5264     0.5945 O.3          1    LIG   0.0000
  26 H            1.1205    -0.0866     1.8440 H            1    LIG   0.0000
  27 H           -0.4237     1.9274    -0.7232 H            1    LIG   0.0000
  28 H            0.2302    -0.2899    -0.9191 H            1    LIG   0.0000
  29 H            2.3084    -2.7284    -0.9985 H            1    LIG   0.0000
  30 H            2.6931    -1.7698     1.0451 H            1    LIG   0.0000
  31 H            1.1528    -2.3000     0.9313 H            1    LIG   0.0000
  32 H            1.7894     2.0684    -0.9821 H            1    LIG   0.0000
  33 H            3.2003     2.2447     2.2219 H            1    LIG   0.0000
  34 H            2.6828     6.7234     3.4287 H            1    LIG   0.0000
  35 H            0.6951     8.6280     3.0768 H            1    LIG   0.0000
  36 H            3.3976     9.0927     3.9592 H            1    LIG   0.0000
  37 H            2.1532     8.6929     4.9380 H            1    LIG   0.0000
  38 H            2.5426    11.0428     4.9993 H            1    LIG   0.0000
  39 H            1.0590    10.7236     4.3965 H            1    LIG   0.0000
  40 H            3.3849    11.3309     2.8000 H            1    LIG   0.0000
  41 H            2.1342    12.3511     3.0478 H            1    LIG   0.0000
  42 H            0.6754    10.8529     1.9304 H            1    LIG   0.0000
  43 H            1.9115    11.2553     0.9421 H            1    LIG   0.0000
  44 H            1.5171     8.9056     0.8769 H            1    LIG   0.0000
  45 H            3.0077     9.2208     1.4644 H            1    LIG   0.0000
  46 H           -0.5596     6.5569    -0.7353 H            1    LIG   0.0000
  47 H           -0.4916     3.0154     1.2885 H            1    LIG   0.0000
  48 H           -1.8620    -0.3360     0.0101 H            1    LIG   0.0000
@<TRIPOS>BOND
   1        1        2 1
   2        2        3 1
   3        3        4 1
   4        4        5 1
   5        5        6 1
   6        6        7 1
   7        7        8 2
   8        8        9 1
   9        9       10 ar
  10       10       11 1
  11       11       12 1
  12       12       13 1
  13       13       14 1
  14       14       15 1
  15       15       16 1
  16       16       17 1
  17       17       12 1
  18       10       18 ar
  19       18       19 ar
  20       19       20 ar
  21       20       21 ar
  22       21        9 ar
  23       21        6 1
  24        5       22 1
  25       22       23 1
  26       22       24 1
  27       24        3 1
  28       24       25 1
  29        3       26 1
  30       22       27 1
  31       24       28 1
  32        1       29 1
  33        2       30 1
  34        2       31 1
  35        5       32 1
  36        7       33 1
  37       11       34 1
  38       12       35 1
  39       13       36 1
  40       13       37 1
  41       14       38 1
  42       14       39 1
  43       15       40 1
  44       15       41 1
  45       16       42 1
  46       16       43 1
  47       17       44 1
  48       17       45 1
  49       19       46 1
  50       23       47 1
  51       25       48 1

@<TRIPOS>MOLECULE
CHEMBL85549
  48   51
SMALL
USER_CHARGES
@<TRIPOS>ATOM
   1 O1           1.9764    -1.8037    -0.8118 O.3          1    LIG   0.0000
   2 C2           1.8141    -1.6328     0.5885 C.3          1    LIG   0.0000
   3 C3           1.3094    -0.2274     0.8722 C.3          1    LIG   0.0000
   4 O4           2.2595     0.6945     0.3793 O.3          1    LIG   0.0000
   5 C5           1.5538     1.8563    -0.0337 C.3          1    LIG   0.0000
   6 N6           1.8323     3.0253     0.8117 N.pl3        1    LIG   0.0000
   7 C7           2.1572     2.9670     2.1342 C.2          1    LIG   0.0000
   8 N8           2.3375     4.1995     2.5521 N.2          1    LIG   0.0000
   9 C9           2.1292     5.0596     1.5121 C.ar         1    LIG   0.0000
  10 C10          2.1921     6.4465     1.4171 C.ar         1    LIG   0.0000
  11 N11          2.5224     7.1894     2.5568 N.pl3        1    LIG   0.0000
  12 C12          2.5955     8.6555     2.4827 C.3          1    LIG   0.0000
  13 C13          3.8012     9.0794     1.6598 C.3          1    LIG   0.0000
  14 C14          3.8696    10.5959     1.5802 C.3          1    LIG   0.0000
  15 C15          2.5986    11.1477     0.9545 C.3          1    LIG   0.0000
  16 C16          1.3980    10.7237     1.7855 C.3          1    LIG   0.0000
  17 C17          1.3196     9.2076     1.8676 C.3          1    LIG   0.0000
  18 N18          1.9383     7.0566     0.2495 N.ar         1    LIG   0.0000
  19 C19          1.6227     6.3271    -0.8316 C.ar         1    LIG   0.0000
  20 N20          1.5655     4.9877    -0.7485 N.ar         1    LIG   0.0000
  21 C21          1.8092     4.3245     0.3956 C.ar         1    LIG   0.0000
  22 C22          0.0701     1.5522     0.0613 C.3          1    LIG   0.0000
  23 O23         -0.4872     2.0154     1.2823 O.3          1    LIG   0.0000
  24 C24          0.0937     0.0406     0.0147 C.3          1    LIG   0.0000
  25 O25         -1.0732    -0.5264     0.5945 O.3          1    LIG   0.0000
  26 H            1.1205    -0.0866     1.8440 H            1    LIG   0.0000
  27 H           -0.4237     1.9274    -0.7232 H            1    LIG   0.0000
  28 H            0.2302    -0.2899    -0.9191 H            1    LIG   0.0000
  29 H            2.3084    -2.7284    -0.9985 H            1    LIG   0.0000
  30 H            2.6931    -1.7698     1.0451 H            1    LIG   0.0000
  31 H            1.1528    -2.3000     0.9313 H            1    LIG   0.0000
  32 H            1.7894     2.0684    -0.9821 H            1    LIG   0.0000
  33 H            2.2429     2.1373     2.6858 H            1    LIG   0.0000
  34 H            2.7086     6.7226     3.4213 H            1    LIG   0.0000
  35 H            2.6919     9.0211     3.4085 H            1    LIG   0.0000
  36 H            3.7212     8.7027     0.7369 H            1    LIG   0.0000
  37 H            4.6345     8.7325     2.0903 H            1    LIG   0.0000
  38 H            4.6551    10.8621     1.0216 H            1    LIG   0.0000
  39 H            3.9735    10.9705     2.5016 H            1    LIG   0.0000
  40 H            2.5030    10.7914     0.0250 H            1    LIG   0.0000
  41 H            2.6478    12.1460     0.9254 H            1    LIG   0.0000
  42 H            1.4863    11.0996     2.7079 H            1    LIG   0.0000
  43 H            0.5631    11.0744     1.3612 H            1    LIG   0.0000
  44 H            0.5383     8.9463     2.4344 H            1    LIG   0.0000
  45 H            1.2051     8.8313     0.9482 H            1    LIG   0.0000
  46 H            1.4295     6.7816    -1.7011 H            1    LIG   0.0000
  47 H           -0.4916     3.0154     1.2885 H            1    LIG   0.0000
  48 H           -1.8620    -0.3360     0.0101 H            1    LIG   0.0000
@<TRIPOS>BOND
   1        1        2 1
   2        2        3 1
   3        3        4 1
   4        4        5 1
   5        5        6 1
   6        6        7 1
   7        7        8 2
   8        8        9 1
   9        9       10 ar
  10       10       11 1
  11       11       12 1
  12       12       13 1
  13       13       14 1
  14       14       15 1
  15       15       16 1
  16       16       17 1
  17       17       12 1
  18       10       18 ar
  19       18       19 ar
  20       19       20 ar
  21       20       21 ar
  22       21        9 ar
  23       21        6 1
  24        5       22 1
  25       22       23 1
  26       22       24 1
  27       24        3 1
  28       24       25 1
  29        3       26 1
  30       22       27 1
  31       24       28 1
  32        1       29 1
  33        2       30 1
  34        2       31 1
  35        5       32 1
  36        7       33 1
  37       11       34 1
  38       12       35 1
  39       13       36 1
  40       13       37 1
  41       14       38 1
  42       14       39 1
  43       15       40 1
  44       15       41 1
  45       16       42 1
  46       16       43 1
  47       17       44 1
  48       17       45 1
  49       19       46 1
  50       23       47 1
  51       25       48 1

@<TRIPOS>MOLECULE
CHEMBL85549
  48   51
SMALL
USER_CHARGES
@<TRIPOS>ATOM
   1 O1           1.9764    -1.8037    -0.8118 O.3          1    LIG   0.0000
   2 C2           1.8141    -1.6328     0.5885 C.3          1    LIG   0.0000
   3 C3           1.3094    -0.2274     0.8722 C.3          1    LIG   0.0000
   4 O4           2.2595     0.6945     0.3793 O.3          1    LIG   0.0000
   5 C5           1.5538     1.8563    -0.0337 C.3          1    LIG   0.0000
   6 N6           1.8323     3.0253     0.8117 N.pl3        1    LIG   0.0000
   7 C7           1.5905     3.0893     2.1516 C.2          1    LIG   0.0000
   8 N8           1.9668     4.2783     2.5652 N.2          1    LIG   0.0000
   9 C9           2.4488     4.9895     1.5038 C.ar         1    LIG   0.0000
  10 C10          2.9669     6.2766     1.3969 C.ar         1    LIG   0.0000
  11 N11          3.0466     7.0725     2.5459 N.pl3        1    LIG   0.0000
  12 C12          3.5899     8.4352     2.4595 C.3          1    LIG   0.0000
  13 C13          5.0860     8.3902     2.1935 C.3          1    LIG   0.0000
  14 C14          5.6492     9.7991     2.0988 C.3          1    LIG   0.0000
  15 C15          5.3722    10.5458     3.3937 C.3          1    LIG   0.0000
  16 C16          3.8764    10.6008     3.6600 C.3          1    LIG   0.0000
  17 C17          3.3104     9.1925     3.7476 C.3          1    LIG   0.0000
  18 N18          3.3812     6.7423     0.2089 N.ar         1    LIG   0.0000
  19 C19          3.2960     5.9644    -0.8811 C.ar         1    LIG   0.0000
  20 N20          2.8020     4.7190    -0.7842 N.ar         1    LIG   0.0000
  21 C21          2.3716     4.2019     0.3799 C.ar         1    LIG   0.0000
  22 C22          0.0701     1.5522     0.0613 C.3          1    LIG   0.0000
  23 O23         -0.4872     2.0154     1.2823 O.3          1    LIG   0.0000
  24 C24          0.0937     0.0406     0.0147 C.3          1    LIG   0.0000
  25 O25         -1.0732    -0.5264     0.5945 O.3          1    LIG   0.0000
  26 H            1.1205    -0.0866     1.8440 H            1    LIG   0.0000
  27 H           -0.4237     1.9274    -0.7232 H            1    LIG   0.0000
  28 H            0.2302    -0.2899    -0.9191 H            1    LIG   0.0000
  29 H            2.3084    -2.7284    -0.9985 H            1    LIG   0.0000
  30 H            2.6931    -1.7698     1.0451 H            1    LIG   0.0000
  31 H            1.1528    -2.3000     0.9313 H            1    LIG   0.0000
  32 H            1.7894     2.0684    -0.9821 H            1    LIG   0.0000
  33 H            1.1983     2.3636     2.7168 H            1    LIG   0.0000
  34 H            2.7337     6.7137     3.4253 H            1    LIG   0.0000
  35 H            3.1430     8.9122     1.7027 H            1    LIG   0.0000
  36 H            5.2534     7.9098     1.3326 H            1    LIG   0.0000
  37 H            5.5391     7.9036     2.9403 H            1    LIG   0.0000
  38 H            5.2154    10.2808     1.3374 H            1    LIG   0.0000
  39 H            6.6363     9.7535     1.9454 H            1    LIG   0.0000
  40 H            5.7289    11.4771     3.3205 H            1    LIG   0.0000
  41 H            5.8250    10.0739     4.1502 H            1    LIG   0.0000
  42 H            3.7112    11.0781     4.5231 H            1    LIG   0.0000
  43 H            3.4255    11.0930     2.9154 H            1    LIG   0.0000
  44 H            3.7376     8.7116     4.5132 H            1    LIG   0.0000
  45 H            2.3225     9.2418     3.8944 H            1    LIG   0.0000
  46 H            3.6010     6.3125    -1.7676 H            1    LIG   0.0000
  47 H           -0.4916     3.0154     1.2885 H            1    LIG   0.0000
  48 H           -1.8620    -0.3360     0.0101 H            1    LIG   0.0000
@<TRIPOS>BOND
   1        1        2 1
   2        2        3 1
   3        3        4 1
   4        4        5 1
   5        5        6 1
   6        6        7 1
   7        7        8 2
   8        8        9 1
   9        9       10 ar
  10       10       11 1
  11       11       12 1
  12       12       13 1
  13       13       14 1
  14       14       15 1
  15       15       16 1
  16       16       17 1
  17       17       12 1
  18       10       18 ar
  19       18       19 ar
  20       19       20 ar
  21       20       21 ar
  22       21        9 ar
  23       21        6 1
  24        5       22 1
  25       22       23 1
  26       22       24 1
  27       24        3 1
  28       24       25 1
  29        3       26 1
  30       22       27 1
  31       24       28 1
  32        1       29 1
  33        2       30 1
  34        2       31 1
  35        5       32 1
  36        7       33 1
  37       11       34 1
  38       12       35 1
  39       13       36 1
  40       13       37 1
  41       14       38 1
  42       14       39 1
  43       15       40 1
  44       15       41 1
  45       16       42 1
  46       16       43 1
  47       17       44 1
  48       17       45 1
  49       19       46 1
  50       23       47 1
  51       25       48 1

@<TRIPOS>MOLECULE
CHEMBL85549
  48   51
SMALL
USER_CHARGES
@<TRIPOS>ATOM
   1 O1           1.9764    -1.8037    -0.8118 O.3          1    LIG   0.0000
   2 C2           1.8141    -1.6328     0.5885 C.3          1    LIG   0.0000
   3 C3           1.3094    -0.2274     0.8722 C.3          1    LIG   0.0000
   4 O4           2.2595     0.6945     0.3793 O.3          1    LIG   0.0000
   5 C5           1.5538     1.8563    -0.0337 C.3          1    LIG   0.0000
   6 N6           1.8323     3.0253     0.8117 N.pl3        1    LIG   0.0000
   7 C7           1.5905     3.0893     2.1516 C.2          1    LIG   0.0000
   8 N8           1.9668     4.2783     2.5652 N.2          1    LIG   0.0000
   9 C9           2.4488     4.9895     1.5038 C.ar         1    LIG   0.0000
  10 C10          2.9669     6.2766     1.3969 C.ar         1    LIG   0.0000
  11 N11          3.0466     7.0725     2.5459 N.pl3        1    LIG   0.0000
  12 C12          3.5899     8.4352     2.4595 C.3          1    LIG   0.0000
  13 C13          2.6277     9.3395     1.7062 C.3          1    LIG   0.0000
  14 C14          3.1856    10.7511     1.6201 C.3          1    LIG   0.0000
  15 C15          4.5334    10.7233     0.9174 C.3          1    LIG   0.0000
  16 C16          5.5020     9.8267     1.6718 C.3          1    LIG   0.0000
  17 C17          4.9420     8.4164     1.7651 C.3          1    LIG   0.0000
  18 N18          3.3812     6.7423     0.2089 N.ar         1    LIG   0.0000
  19 C19          3.2960     5.9644    -0.8811 C.ar         1    LIG   0.0000
  20 N20          2.8020     4.7190    -0.7842 N.ar         1    LIG   0.0000
  21 C21          2.3716     4.2019     0.3799 C.ar         1    LIG   0.0000
  22 C22          0.0701     1.5522     0.0613 C.3          1    LIG   0.0000
  23 O23         -0.4872     2.0154     1.2823 O.3          1    LIG   0.0000
  24 C24          0.0937     0.0406     0.0147 C.3          1    LIG   0.0000
  25 O25         -1.0732    -0.5264     0.5945 O.3          1    LIG   0.0000
  26 H            1.1205    -0.0866     1.8440 H            1    LIG   0.0000
  27 H           -0.4237     1.9274    -0.7232 H            1    LIG   0.0000
  28 H            0.2302    -0.2899    -0.9191 H            1    LIG   0.0000
  29 H            2.3084    -2.7284    -0.9985 H            1    LIG   0.0000
  30 H            2.6931    -1.7698     1.0451 H            1    LIG   0.0000
  31 H            1.1528    -2.3000     0.9313 H            1    LIG   0.0000
  32 H            1.7894     2.0684    -0.9821 H            1    LIG   0.0000
  33 H            1.1983     2.3636     2.7168 H            1    LIG   0.0000
  34 H            2.7337     6.7137     3.4253 H            1    LIG   0.0000
  35 H            3.7091     8.7931     3.3857 H            1    LIG   0.0000
  36 H            1.7507     9.3605     2.1863 H            1    LIG   0.0000
  37 H            2.4934     8.9812     0.7823 H            1    LIG   0.0000
  38 H            3.2983    11.1214     2.5421 H            1    LIG   0.0000
  39 H            2.5528    11.3284     1.1040 H            1    LIG   0.0000
  40 H            4.9045    11.6511     0.8784 H            1    LIG   0.0000
  41 H            4.4141    10.3727    -0.0115 H            1    LIG   0.0000
  42 H            6.3770     9.8039     1.1881 H            1    LIG   0.0000
  43 H            5.6399    10.1897     2.5933 H            1    LIG   0.0000
  44 H            4.8354     8.0414     0.8442 H            1    LIG   0.0000
  45 H            5.5738     7.8437     2.2873 H            1    LIG   0.0000
  46 H            3.6010     6.3125    -1.7676 H            1    LIG   0.0000
  47 H           -0.4916     3.0154     1.2885 H            1    LIG   0.0000
  48 H           -1.8620    -0.3360     0.0101 H            1    LIG   0.0000
@<TRIPOS>BOND
   1        1        2 1
   2        2        3 1
   3        3        4 1
   4        4        5 1
   5        5        6 1
   6        6        7 1
   7        7        8 2
   8        8        9 1
   9        9       10 ar
  10       10       11 1
  11       11       12 1
  12       12       13 1
  13       13       14 1
  14       14       15 1
  15       15       16 1
  16       16       17 1
  17       17       12 1
  18       10       18 ar
  19       18       19 ar
  20       19       20 ar
  21       20       21 ar
  22       21        9 ar
  23       21        6 1
  24        5       22 1
  25       22       23 1
  26       22       24 1
  27       24        3 1
  28       24       25 1
  29        3       26 1
  30       22       27 1
  31       24       28 1
  32        1       29 1
  33        2       30 1
  34        2       31 1
  35        5       32 1
  36        7       33 1
  37       11       34 1
  38       12       35 1
  39       13       36 1
  40       13       37 1
  41       14       38 1
  42       14       39 1
  43       15       40 1
  44       15       41 1
  45       16       42 1
  46       16       43 1
  47       17       44 1
  48       17       45 1
  49       19       46 1
  50       23       47 1
  51       25       48 1

@<TRIPOS>MOLECULE
CHEMBL85549
  48   51
SMALL
USER_CHARGES
@<TRIPOS>ATOM
   1 O1           1.9764    -1.8037    -0.8118 O.3          1    LIG   0.0000
   2 C2           1.8141    -1.6328     0.5885 C.3          1    LIG   0.0000
   3 C3           1.3094    -0.2274     0.8722 C.3          1    LIG   0.0000
   4 O4           2.2595     0.6945     0.3793 O.3          1    LIG   0.0000
   5 C5           1.5538     1.8563    -0.0337 C.3          1    LIG   0.0000
   6 N6           1.8323     3.0253     0.8117 N.pl3        1    LIG   0.0000
   7 C7           1.5905     3.0893     2.1516 C.2          1    LIG   0.0000
   8 N8           1.9668     4.2783     2.5652 N.2          1    LIG   0.0000
   9 C9           2.4488     4.9895     1.5038 C.ar         1    LIG   0.0000
  10 C10          2.9669     6.2766     1.3969 C.ar         1    LIG   0.0000
  11 N11          3.0466     7.0725     2.5459 N.pl3        1    LIG   0.0000
  12 C12          3.5899     8.4352     2.4595 C.3          1    LIG   0.0000
  13 C13          3.5740     9.0966     3.8282 C.3          1    LIG   0.0000
  14 C14          4.1404    10.5049     3.7421 C.3          1    LIG   0.0000
  15 C15          3.3205    11.3235     2.7579 C.3          1    LIG   0.0000
  16 C16          3.3402    10.6704     1.3851 C.3          1    LIG   0.0000
  17 C17          2.7809     9.2594     1.4711 C.3          1    LIG   0.0000
  18 N18          3.3812     6.7423     0.2089 N.ar         1    LIG   0.0000
  19 C19          3.2960     5.9644    -0.8811 C.ar         1    LIG   0.0000
  20 N20          2.8020     4.7190    -0.7842 N.ar         1    LIG   0.0000
  21 C21          2.3716     4.2019     0.3799 C.ar         1    LIG   0.0000
  22 C22          0.0701     1.5522     0.0613 C.3          1    LIG   0.0000
  23 O23         -0.4872     2.0154     1.2823 O.3          1    LIG   0.0000
  24 C24          0.0937     0.0406     0.0147 C.3          1    LIG   0.0000
  25 O25         -1.0732    -0.5264     0.5945 O.3          1    LIG   0.0000
  26 H            1.1205    -0.0866     1.8440 H            1    LIG   0.0000
  27 H           -0.4237     1.9274    -0.7232 H            1    LIG   0.0000
  28 H            0.2302    -0.2899    -0.9191 H            1    LIG   0.0000
  29 H            2.3084    -2.7284    -0.9985 H            1    LIG   0.0000
  30 H            2.6931    -1.7698     1.0451 H            1    LIG   0.0000
  31 H            1.1528    -2.3000     0.9313 H            1    LIG   0.0000
  32 H            1.7894     2.0684    -0.9821 H            1    LIG   0.0000
  33 H            1.1983     2.3636     2.7168 H            1    LIG   0.0000
  34 H            2.7337     6.7137     3.4253 H            1    LIG   0.0000
  35 H            4.5354     8.3846     2.1379 H            1    LIG   0.0000
  36 H            4.1282     8.5567     4.4617 H            1    LIG   0.0000
  37 H            2.6325     9.1399     4.1626 H            1    LIG   0.0000
  38 H            5.0899    10.4635     3.4311 H            1    LIG   0.0000
  39 H            4.1036    10.9344     4.6444 H            1    LIG   0.0000
  40 H            3.7069    12.2434     2.6913 H            1    LIG   0.0000
  41 H            2.3764    11.3812     3.0824 H            1    LIG   0.0000
  42 H            2.7824    11.2096     0.7541 H            1    LIG   0.0000
  43 H            4.2815    10.6335     1.0496 H            1    LIG   0.0000
  44 H            1.8290     9.2990     1.7748 H            1    LIG   0.0000
  45 H            2.8254     8.8306     0.5688 H            1    LIG   0.0000
  46 H            3.6010     6.3125    -1.7676 H            1    LIG   0.0000
  47 H           -0.4916     3.0154     1.2885 H            1    LIG   0.0000
  48 H           -1.8620    -0.3360     0.0101 H            1    LIG   0.0000
@<TRIPOS>BOND
   1        1        2 1
   2        2        3 1
   3        3        4 1
   4        4        5 1
   5        5        6 1
   6        6        7 1
   7        7        8 2
   8        8        9 1
   9        9       10 ar
  10       10       11 1
  11       11       12 1
  12       12       13 1
  13       13       14 1
  14       14       15 1
  15       15       16 1
  16       16       17 1
  17       17       12 1
  18       10       18 ar
  19       18       19 ar
  20       19       20 ar
  21       20       21 ar
  22       21        9 ar
  23       21        6 1
  24        5       22 1
  25       22       23 1
  26       22       24 1
  27       24        3 1
  28       24       25 1
  29        3       26 1
  30       22       27 1
  31       24       28 1
  32        1       29 1
  33        2       30 1
  34        2       31 1
  35        5       32 1
  36        7       33 1
  37       11       34 1
  38       12       35 1
  39       13       36 1
  40       13       37 1
  41       14       38 1
  42       14       39 1
  43       15       40 1
  44       15       41 1
  45       16       42 1
  46       16       43 1
  47       17       44 1
  48       17       45 1
  49       19       46 1
  50       23       47 1
  51       25       48 1

@<TRIPOS>MOLECULE
CHEMBL85549
  48   51
SMALL
USER_CHARGES
@<TRIPOS>ATOM
   1 O1           1.9764    -1.8037    -0.8118 O.3          1    LIG   0.0000
   2 C2           1.8141    -1.6328     0.5885 C.3          1    LIG   0.0000
   3 C3           1.3094    -0.2274     0.8722 C.3          1    LIG   0.0000
   4 O4           2.2595     0.6945     0.3793 O.3          1    LIG   0.0000
   5 C5           1.5538     1.8563    -0.0337 C.3          1    LIG   0.0000
   6 N6           1.8323     3.0253     0.8117 N.pl3        1    LIG   0.0000
   7 C7           1.5905     3.0893     2.1516 C.2          1    LIG   0.0000
   8 N8           1.9668     4.2783     2.5652 N.2          1    LIG   0.0000
   9 C9           2.4488     4.9895     1.5038 C.ar         1    LIG   0.0000
  10 C10          2.9669     6.2766     1.3969 C.ar         1    LIG   0.0000
  11 N11          3.0466     7.0725     2.5459 N.pl3        1    LIG   0.0000
  12 C12          3.5900     8.4354     2.4595 C.3          1    LIG   0.0000
  13 C13          2.6260     9.3374     1.7059 C.3          1    LIG   0.0000
  14 C14          3.1886    10.7472     1.6244 C.3          1    LIG   0.0000
  15 C15          3.4274    11.2999     3.0204 C.3          1    LIG   0.0000
  16 C16          4.3958    10.3954     3.7659 C.3          1    LIG   0.0000
  17 C17          3.8394     8.9834     3.8554 C.3          1    LIG   0.0000
  18 N18          3.3812     6.7423     0.2089 N.ar         1    LIG   0.0000
  19 C19          3.2960     5.9644    -0.8811 C.ar         1    LIG   0.0000
  20 N20          2.8020     4.7190    -0.7842 N.ar         1    LIG   0.0000
  21 C21          2.3716     4.2019     0.3799 C.ar         1    LIG   0.0000
  22 C22          0.0701     1.5522     0.0613 C.3          1    LIG   0.0000
  23 O23         -0.4872     2.0154     1.2823 O.3          1    LIG   0.0000
  24 C24          0.0937     0.0406     0.0147 C.3          1    LIG   0.0000
  25 O25         -1.0732    -0.5264     0.5945 O.3          1    LIG   0.0000
  26 H            1.1205    -0.0866     1.8440 H            1    LIG   0.0000
  27 H           -0.4237     1.9274    -0.7232 H            1    LIG   0.0000
  28 H            0.2302    -0.2899    -0.9191 H            1    LIG   0.0000
  29 H            2.3084    -2.7284    -0.9985 H            1    LIG   0.0000
  30 H            2.6931    -1.7698     1.0451 H            1    LIG   0.0000
  31 H            1.1528    -2.3000     0.9313 H            1    LIG   0.0000
  32 H            1.7894     2.0684    -0.9821 H            1    LIG   0.0000
  33 H            1.1983     2.3636     2.7168 H            1    LIG   0.0000
  34 H            2.7337     6.7137     3.4253 H            1    LIG   0.0000
  35 H            4.4583     8.4059     1.9644 H            1    LIG   0.0000
  36 H            1.7486     9.3583     2.1853 H            1    LIG   0.0000
  37 H            2.4923     8.9802     0.7815 H            1    LIG   0.0000
  38 H            2.5381    11.3349     1.1434 H            1    LIG   0.0000
  39 H            4.0542    10.7287     1.1241 H            1    LIG   0.0000
  40 H            2.5597    11.3394     3.5160 H            1    LIG   0.0000
  41 H            3.8149    12.2193     2.9529 H            1    LIG   0.0000
  42 H            5.2691    10.3753     3.2792 H            1    LIG   0.0000
  43 H            4.5368    10.7532     4.6890 H            1    LIG   0.0000
  44 H            4.4970     8.3974     4.3289 H            1    LIG   0.0000
  45 H            2.9788     8.9978     4.3645 H            1    LIG   0.0000
  46 H            3.6010     6.3125    -1.7676 H            1    LIG   0.0000
  47 H           -0.4916     3.0154     1.2885 H            1    LIG   0.0000
  48 H           -1.8620    -0.3360     0.0101 H            1    LIG   0.0000
@<TRIPOS>BOND
   1        1        2 1
   2        2        3 1
   3        3        4 1
   4        4        5 1
   5        5        6 1
   6        6        7 1
   7        7        8 2
   8        8        9 1
   9        9       10 ar
  10       10       11 1
  11       11       12 1
  12       12       13 1
  13       13       14 1
  14       14       15 1
  15       15       16 1
  16       16       17 1
  17       17       12 1
  18       10       18 ar
  19       18       19 ar
  20       19       20 ar
  21       20       21 ar
  22       21        9 ar
  23       21        6 1
  24        5       22 1
  25       22       23 1
  26       22       24 1
  27       24        3 1
  28       24       25 1
  29        3       26 1
  30       22       27 1
  31       24       28 1
  32        1       29 1
  33        2       30 1
  34        2       31 1
  35        5       32 1
  36        7       33 1
  37       11       34 1
  38       12       35 1
  39       13       36 1
  40       13       37 1
  41       14       38 1
  42       14       39 1
  43       15       40 1
  44       15       41 1
  45       16       42 1
  46       16       43 1
  47       17       44 1
  48       17       45 1
  49       19       46 1
  50       23       47 1
  51       25       48 1

@<TRIPOS>MOLECULE
CHEMBL85549
  48   51
SMALL
USER_CHARGES
@<TRIPOS>ATOM
   1 O1           1.9764    -1.8037    -0.8118 O.3          1    LIG   0.0000
   2 C2           1.8141    -1.6328     0.5885 C.3          1    LIG   0.0000
   3 C3           1.3094    -0.2274     0.8722 C.3          1    LIG   0.0000
   4 O4           2.2595     0.6945     0.3793 O.3          1    LIG   0.0000
   5 C5           1.5538     1.8563    -0.0337 C.3          1    LIG   0.0000
   6 N6           1.8323     3.0253     0.8117 N.pl3        1    LIG   0.0000
   7 C7           1.5905     3.0893     2.1516 C.2          1    LIG   0.0000
   8 N8           1.9668     4.2783     2.5652 N.2          1    LIG   0.0000
   9 C9           2.4488     4.9895     1.5038 C.ar         1    LIG   0.0000
  10 C10          2.9669     6.2766     1.3969 C.ar         1    LIG   0.0000
  11 N11          3.0466     7.0725     2.5459 N.pl3        1    LIG   0.0000
  12 C12          3.5900     8.4354     2.4595 C.3          1    LIG   0.0000
  13 C13          3.5729     9.0944     3.8293 C.3          1    LIG   0.0000
  14 C14          4.1415    10.5011     3.7369 C.3          1    LIG   0.0000
  15 C15          5.5641    10.4595     3.2025 C.3          1    LIG   0.0000
  16 C16          5.5724     9.8037     1.8307 C.3          1    LIG   0.0000
  17 C17          5.0084     8.3943     1.9143 C.3          1    LIG   0.0000
  18 N18          3.3812     6.7423     0.2089 N.ar         1    LIG   0.0000
  19 C19          3.2960     5.9644    -0.8811 C.ar         1    LIG   0.0000
  20 N20          2.8020     4.7190    -0.7842 N.ar         1    LIG   0.0000
  21 C21          2.3716     4.2019     0.3799 C.ar         1    LIG   0.0000
  22 C22          0.0701     1.5522     0.0613 C.3          1    LIG   0.0000
  23 O23         -0.4872     2.0154     1.2823 O.3          1    LIG   0.0000
  24 C24          0.0937     0.0406     0.0147 C.3          1    LIG   0.0000
  25 O25         -1.0732    -0.5264     0.5945 O.3          1    LIG   0.0000
  26 H            1.1205    -0.0866     1.8440 H            1    LIG   0.0000
  27 H           -0.4237     1.9274    -0.7232 H            1    LIG   0.0000
  28 H            0.2302    -0.2899    -0.9191 H            1    LIG   0.0000
  29 H            2.3084    -2.7284    -0.9985 H            1    LIG   0.0000
  30 H            2.6931    -1.7698     1.0451 H            1    LIG   0.0000
  31 H            1.1528    -2.3000     0.9313 H            1    LIG   0.0000
  32 H            1.7894     2.0684    -0.9821 H            1    LIG   0.0000
  33 H            1.1983     2.3636     2.7168 H            1    LIG   0.0000
  34 H            2.7337     6.7137     3.4253 H            1    LIG   0.0000
  35 H            3.0201     8.9712     1.8365 H            1    LIG   0.0000
  36 H            4.1265     8.5545     4.4633 H            1    LIG   0.0000
  37 H            2.6315     9.1390     4.1636 H            1    LIG   0.0000
  38 H            4.1424    10.9172     4.6462 H            1    LIG   0.0000
  39 H            3.5733    11.0470     3.1211 H            1    LIG   0.0000
  40 H            6.1395     9.9319     3.8274 H            1    LIG   0.0000
  41 H            5.9196    11.3912     3.1284 H            1    LIG   0.0000
  42 H            5.0136    10.3456     1.2030 H            1    LIG   0.0000
  43 H            6.5118     9.7631     1.4905 H            1    LIG   0.0000
  44 H            5.0009     7.9856     1.0016 H            1    LIG   0.0000
  45 H            5.5811     7.8435     2.5214 H            1    LIG   0.0000
  46 H            3.6010     6.3125    -1.7676 H            1    LIG   0.0000
  47 H           -0.4916     3.0154     1.2885 H            1    LIG   0.0000
  48 H           -1.8620    -0.3360     0.0101 H            1    LIG   0.0000
@<TRIPOS>BOND
   1        1        2 1
   2        2        3 1
   3        3        4 1
   4        4        5 1
   5        5        6 1
   6        6        7 1
   7        7        8 2
   8        8        9 1
   9        9       10 ar
  10       10       11 1
  11       11       12 1
  12       12       13 1
  13       13       14 1
  14       14       15 1
  15       15       16 1
  16       16       17 1
  17       17       12 1
  18       10       18 ar
  19       18       19 ar
  20       19       20 ar
  21       20       21 ar
  22       21        9 ar
  23       21        6 1
  24        5       22 1
  25       22       23 1
  26       22       24 1
  27       24        3 1
  28       24       25 1
  29        3       26 1
  30       22       27 1
  31       24       28 1
  32        1       29 1
  33        2       30 1
  34        2       31 1
  35        5       32 1
  36        7       33 1
  37       11       34 1
  38       12       35 1
  39       13       36 1
  40       13       37 1
  41       14       38 1
  42       14       39 1
  43       15       40 1
  44       15       41 1
  45       16       42 1
  46       16       43 1
  47       17       44 1
  48       17       45 1
  49       19       46 1
  50       23       47 1
  51       25       48 1

@<TRIPOS>MOLECULE
CHEMBL85549
  48   51
SMALL
USER_CHARGES
@<TRIPOS>ATOM
   1 O1           1.9764    -1.8037    -0.8118 O.3          1    LIG   0.0000
   2 C2           1.8141    -1.6328     0.5885 C.3          1    LIG   0.0000
   3 C3           1.3094    -0.2274     0.8722 C.3          1    LIG   0.0000
   4 O4           2.2595     0.6945     0.3793 O.3          1    LIG   0.0000
   5 C5           1.5538     1.8563    -0.0337 C.3          1    LIG   0.0000
   6 N6           1.8323     3.0253     0.8117 N.pl3        1    LIG   0.0000
   7 C7           1.2824     4.2599     0.6344 C.2          1    LIG   0.0000
   8 N8           1.7586     5.0439     1.5751 N.2          1    LIG   0.0000
   9 C9           2.6165     4.3295     2.3613 C.ar         1    LIG   0.0000
  10 C10          3.3739     4.6761     3.4760 C.ar         1    LIG   0.0000
  11 N11          3.3112     5.9898     3.9559 N.pl3        1    LIG   0.0000
  12 C12          4.1014     6.3812     5.1315 C.3          1    LIG   0.0000
  13 C13          3.5412     5.7275     6.3845 C.3          1    LIG   0.0000
  14 C14          4.3603     6.1271     7.6013 C.3          1    LIG   0.0000
  15 C15          4.3443     7.6398     7.7508 C.3          1    LIG   0.0000
  16 C16          4.9116     8.2982     6.5033 C.3          1    LIG   0.0000
  17 C17          4.0979     7.8935     5.2845 C.3          1    LIG   0.0000
  18 N18          4.1508     3.7620     4.0767 N.ar         1    LIG   0.0000
  19 C19          4.1980     2.5081     3.6013 C.ar         1    LIG   0.0000
  20 N20          3.4653     2.1651     2.5290 N.ar         1    LIG   0.0000
  21 C21          2.6710     3.0402     1.8878 C.ar         1    LIG   0.0000
  22 C22          0.0701     1.5522     0.0613 C.3          1    LIG   0.0000
  23 O23         -0.4872     2.0154     1.2823 O.3          1    LIG   0.0000
  24 C24          0.0937     0.0406     0.0147 C.3          1    LIG   0.0000
  25 O25         -1.0732    -0.5264     0.5945 O.3          1    LIG   0.0000
  26 H            1.1205    -0.0866     1.8440 H            1    LIG   0.0000
  27 H           -0.4237     1.9274    -0.7232 H            1    LIG   0.0000
  28 H            0.2302    -0.2899    -0.9191 H            1    LIG   0.0000
  29 H            2.3084    -2.7284    -0.9985 H            1    LIG   0.0000
  30 H            2.6931    -1.7698     1.0451 H            1    LIG   0.0000
  31 H            1.1528    -2.3000     0.9313 H            1    LIG   0.0000
  32 H            1.7894     2.0684    -0.9821 H            1    LIG   0.0000
  33 H            0.6346     4.5212    -0.0812 H            1    LIG   0.0000
  34 H            2.7287     6.6619     3.4987 H            1    LIG   0.0000
  35 H            5.0440     6.0733     5.0023 H            1    LIG   0.0000
  36 H            3.5709     4.7335     6.2791 H            1    LIG   0.0000
  37 H            2.5940     6.0208     6.5140 H            1    LIG   0.0000
  38 H            5.3029     5.8138     7.4857 H            1    LIG   0.0000
  39 H            3.9675     5.7074     8.4196 H            1    LIG   0.0000
  40 H            4.8984     7.8992     8.5418 H            1    LIG   0.0000
  41 H            3.4029     7.9481     7.8876 H            1    LIG   0.0000
  42 H            4.8775     9.2920     6.6089 H            1    LIG   0.0000
  43 H            5.8606     8.0086     6.3786 H            1    LIG   0.0000
  44 H            3.1565     8.2124     5.3948 H            1    LIG   0.0000
  45 H            4.4972     8.3094     4.4675 H            1    LIG   0.0000
  46 H            4.7800     1.8275     4.0463 H            1    LIG   0.0000
  47 H           -0.4916     3.0154     1.2885 H            1    LIG   0.0000
  48 H           -1.8620    -0.3360     0.0101 H            1    LIG   0.0000
@<TRIPOS>BOND
   1        1        2 1
   2        2        3 1
   3        3        4 1
   4        4        5 1
   5        5        6 1
   6        6        7 1
   7        7        8 2
   8        8        9 1
   9        9       10 ar
  10       10       11 1
  11       11       12 1
  12       12       13 1
  13       13       14 1
  14       14       15 1
  15       15       16 1
  16       16       17 1
  17       17       12 1
  18       10       18 ar
  19       18       19 ar
  20       19       20 ar
  21       20       21 ar
  22       21        9 ar
  23       21        6 1
  24        5       22 1
  25       22       23 1
  26       22       24 1
  27       24        3 1
  28       24       25 1
  29        3       26 1
  30       22       27 1
  31       24       28 1
  32        1       29 1
  33        2       30 1
  34        2       31 1
  35        5       32 1
  36        7       33 1
  37       11       34 1
  38       12       35 1
  39       13       36 1
  40       13       37 1
  41       14       38 1
  42       14       39 1
  43       15       40 1
  44       15       41 1
  45       16       42 1
  46       16       43 1
  47       17       44 1
  48       17       45 1
  49       19       46 1
  50       23       47 1
  51       25       48 1

@<TRIPOS>MOLECULE
CHEMBL85549
  48   51
SMALL
USER_CHARGES
@<TRIPOS>ATOM
   1 O1           1.9764    -1.8037    -0.8118 O.3          1    LIG   0.0000
   2 C2           1.8141    -1.6328     0.5885 C.3          1    LIG   0.0000
   3 C3           1.3094    -0.2274     0.8722 C.3          1    LIG   0.0000
   4 O4           2.2595     0.6945     0.3793 O.3          1    LIG   0.0000
   5 C5           1.5538     1.8563    -0.0337 C.3          1    LIG   0.0000
   6 N6           1.8323     3.0253     0.8117 N.pl3        1    LIG   0.0000
   7 C7           1.2824     4.2599     0.6344 C.2          1    LIG   0.0000
   8 N8           1.7586     5.0439     1.5751 N.2          1    LIG   0.0000
   9 C9           2.6165     4.3295     2.3613 C.ar         1    LIG   0.0000
  10 C10          3.3739     4.6761     3.4760 C.ar         1    LIG   0.0000
  11 N11          3.3112     5.9898     3.9559 N.pl3        1    LIG   0.0000
  12 C12          4.1014     6.3812     5.1315 C.3          1    LIG   0.0000
  13 C13          5.5817     6.4086     4.7863 C.3          1    LIG   0.0000
  14 C14          6.4006     6.8181     5.9999 C.3          1    LIG   0.0000
  15 C15          6.1485     5.8411     7.1369 C.3          1    LIG   0.0000
  16 C16          4.6703     5.8162     7.4916 C.3          1    LIG   0.0000
  17 C17          3.8495     5.4140     6.2768 C.3          1    LIG   0.0000
  18 N18          4.1508     3.7620     4.0767 N.ar         1    LIG   0.0000
  19 C19          4.1980     2.5081     3.6013 C.ar         1    LIG   0.0000
  20 N20          3.4653     2.1651     2.5290 N.ar         1    LIG   0.0000
  21 C21          2.6710     3.0402     1.8878 C.ar         1    LIG   0.0000
  22 C22          0.0701     1.5522     0.0613 C.3          1    LIG   0.0000
  23 O23         -0.4872     2.0154     1.2823 O.3          1    LIG   0.0000
  24 C24          0.0937     0.0406     0.0147 C.3          1    LIG   0.0000
  25 O25         -1.0732    -0.5264     0.5945 O.3          1    LIG   0.0000
  26 H            1.1205    -0.0866     1.8440 H            1    LIG   0.0000
  27 H           -0.4237     1.9274    -0.7232 H            1    LIG   0.0000
  28 H            0.2302    -0.2899    -0.9191 H            1    LIG   0.0000
  29 H            2.3084    -2.7284    -0.9985 H            1    LIG   0.0000
  30 H            2.6931    -1.7698     1.0451 H            1    LIG   0.0000
  31 H            1.1528    -2.3000     0.9313 H            1    LIG   0.0000
  32 H            1.7894     2.0684    -0.9821 H            1    LIG   0.0000
  33 H            0.6346     4.5212    -0.0812 H            1    LIG   0.0000
  34 H            2.7287     6.6619     3.4987 H            1    LIG   0.0000
  35 H            3.8208     7.2976     5.4170 H            1    LIG   0.0000
  36 H            5.7358     7.0652     4.0479 H            1    LIG   0.0000
  37 H            5.8675     5.4980     4.4877 H            1    LIG   0.0000
  38 H            6.1341     7.7384     6.2864 H            1    LIG   0.0000
  39 H            7.3723     6.8108     5.7638 H            1    LIG   0.0000
  40 H            6.6755     6.1240     7.9382 H            1    LIG   0.0000
  41 H            6.4358     4.9256     6.8552 H            1    LIG   0.0000
  42 H            4.5176     5.1564     8.2274 H            1    LIG   0.0000
  43 H            4.3876     6.7259     7.7957 H            1    LIG   0.0000
  44 H            4.1092     4.4909     5.9932 H            1    LIG   0.0000
  45 H            2.8783     5.4288     6.5145 H            1    LIG   0.0000
  46 H            4.7800     1.8275     4.0463 H            1    LIG   0.0000
  47 H           -0.4916     3.0154     1.2885 H            1    LIG   0.0000
  48 H           -1.8620    -0.3360     0.0101 H            1    LIG   0.0000
@<TRIPOS>BOND
   1        1        2 1
   2        2        3 1
   3        3        4 1
   4        4        5 1
   5        5        6 1
   6        6        7 1
   7        7        8 2
   8        8        9 1
   9        9       10 ar
  10       10       11 1
  11       11       12 1
  12       12       13 1
  13       13       14 1
  14       14       15 1
  15       15       16 1
  16       16       17 1
  17       17       12 1
  18       10       18 ar
  19       18       19 ar
  20       19       20 ar
  21       20       21 ar
  22       21        9 ar
  23       21        6 1
  24        5       22 1
  25       22       23 1
  26       22       24 1
  27       24        3 1
  28       24       25 1
  29        3       26 1
  30       22       27 1
  31       24       28 1
  32        1       29 1
  33        2       30 1
  34        2       31 1
  35        5       32 1
  36        7       33 1
  37       11       34 1
  38       12       35 1
  39       13       36 1
  40       13       37 1
  41       14       38 1
  42       14       39 1
  43       15       40 1
  44       15       41 1
  45       16       42 1
  46       16       43 1
  47       17       44 1
  48       17       45 1
  49       19       46 1
  50       23       47 1
  51       25       48 1

@<TRIPOS>MOLECULE
CHEMBL85549
  48   51
SMALL
USER_CHARGES
@<TRIPOS>ATOM
   1 O1           1.9764    -1.8037    -0.8118 O.3          1    LIG   0.0000
   2 C2           1.8141    -1.6328     0.5885 C.3          1    LIG   0.0000
   3 C3           1.3094    -0.2274     0.8722 C.3          1    LIG   0.0000
   4 O4           2.2595     0.6945     0.3793 O.3          1    LIG   0.0000
   5 C5           1.5538     1.8563    -0.0337 C.3          1    LIG   0.0000
   6 N6           1.8323     3.0253     0.8117 N.pl3        1    LIG   0.0000
   7 C7           1.2824     4.2599     0.6344 C.2          1    LIG   0.0000
   8 N8           1.7586     5.0439     1.5751 N.2          1    LIG   0.0000
   9 C9           2.6165     4.3295     2.3613 C.ar         1    LIG   0.0000
  10 C10          3.3739     4.6761     3.4760 C.ar         1    LIG   0.0000
  11 N11          3.3112     5.9898     3.9559 N.pl3        1    LIG   0.0000
  12 C12          4.1014     6.3812     5.1315 C.3          1    LIG   0.0000
  13 C13          3.8684     7.8473     5.4589 C.3          1    LIG   0.0000
  14 C14          4.6812     8.2530     6.6779 C.3          1    LIG   0.0000
  15 C15          6.1572     8.0068     6.4101 C.3          1    LIG   0.0000
  16 C16          6.3967     6.5399     6.0903 C.3          1    LIG   0.0000
  17 C17          5.5788     6.1309     4.8759 C.3          1    LIG   0.0000
  18 N18          4.1508     3.7620     4.0767 N.ar         1    LIG   0.0000
  19 C19          4.1980     2.5081     3.6013 C.ar         1    LIG   0.0000
  20 N20          3.4653     2.1651     2.5290 N.ar         1    LIG   0.0000
  21 C21          2.6710     3.0402     1.8878 C.ar         1    LIG   0.0000
  22 C22          0.0701     1.5522     0.0613 C.3          1    LIG   0.0000
  23 O23         -0.4872     2.0154     1.2823 O.3          1    LIG   0.0000
  24 C24          0.0937     0.0406     0.0147 C.3          1    LIG   0.0000
  25 O25         -1.0732    -0.5264     0.5945 O.3          1    LIG   0.0000
  26 H            1.1205    -0.0866     1.8440 H            1    LIG   0.0000
  27 H           -0.4237     1.9274    -0.7232 H            1    LIG   0.0000
  28 H            0.2302    -0.2899    -0.9191 H            1    LIG   0.0000
  29 H            2.3084    -2.7284    -0.9985 H            1    LIG   0.0000
  30 H            2.6931    -1.7698     1.0451 H            1    LIG   0.0000
  31 H            1.1528    -2.3000     0.9313 H            1    LIG   0.0000
  32 H            1.7894     2.0684    -0.9821 H            1    LIG   0.0000
  33 H            0.6346     4.5212    -0.0812 H            1    LIG   0.0000
  34 H            2.7287     6.6619     3.4987 H            1    LIG   0.0000
  35 H            3.8119     5.8275     5.9123 H            1    LIG   0.0000
  36 H            2.8971     7.9927     5.6471 H            1    LIG   0.0000
  37 H            4.1441     8.4074     4.6777 H            1    LIG   0.0000
  38 H            4.3910     7.7114     7.4669 H            1    LIG   0.0000
  39 H            4.5346     9.2238     6.8679 H            1    LIG   0.0000
  40 H            6.6862     8.2586     7.2205 H            1    LIG   0.0000
  41 H            6.4496     8.5658     5.6342 H            1    LIG   0.0000
  42 H            7.3678     6.3972     5.8987 H            1    LIG   0.0000
  43 H            6.1263     5.9817     6.8748 H            1    LIG   0.0000
  44 H            5.8726     6.6661     4.0839 H            1    LIG   0.0000
  45 H            5.7225     5.1583     4.6928 H            1    LIG   0.0000
  46 H            4.7800     1.8275     4.0463 H            1    LIG   0.0000
  47 H           -0.4916     3.0154     1.2885 H            1    LIG   0.0000
  48 H           -1.8620    -0.3360     0.0101 H            1    LIG   0.0000
@<TRIPOS>BOND
   1        1        2 1
   2        2        3 1
   3        3        4 1
   4        4        5 1
   5        5        6 1
   6        6        7 1
   7        7        8 2
   8        8        9 1
   9        9       10 ar
  10       10       11 1
  11       11       12 1
  12       12       13 1
  13       13       14 1
  14       14       15 1
  15       15       16 1
  16       16       17 1
  17       17       12 1
  18       10       18 ar
  19       18       19 ar
  20       19       20 ar
  21       20       21 ar
  22       21        9 ar
  23       21        6 1
  24        5       22 1
  25       22       23 1
  26       22       24 1
  27       24        3 1
  28       24       25 1
  29        3       26 1
  30       22       27 1
  31       24       28 1
  32        1       29 1
  33        2       30 1
  34        2       31 1
  35        5       32 1
  36        7       33 1
  37       11       34 1
  38       12       35 1
  39       13       36 1
  40       13       37 1
  41       14       38 1
  42       14       39 1
  43       15       40 1
  44       15       41 1
  45       16       42 1
  46       16       43 1
  47       17       44 1
  48       17       45 1
  49       19       46 1
  50       23       47 1
  51       25       48 1

@<TRIPOS>MOLECULE
CHEMBL85549
  48   51
SMALL
USER_CHARGES
@<TRIPOS>ATOM
   1 O1           1.9764    -1.8037    -0.8118 O.3          1    LIG   0.0000
   2 C2           1.8141    -1.6328     0.5885 C.3          1    LIG   0.0000
   3 C3           1.3094    -0.2274     0.8722 C.3          1    LIG   0.0000
   4 O4           2.2595     0.6945     0.3793 O.3          1    LIG   0.0000
   5 C5           1.5538     1.8563    -0.0337 C.3          1    LIG   0.0000
   6 N6           1.8323     3.0253     0.8117 N.pl3        1    LIG   0.0000
   7 C7           1.2824     4.2599     0.6344 C.2          1    LIG   0.0000
   8 N8           1.7586     5.0439     1.5751 N.2          1    LIG   0.0000
   9 C9           2.6165     4.3295     2.3613 C.ar         1    LIG   0.0000
  10 C10          3.3739     4.6761     3.4760 C.ar         1    LIG   0.0000
  11 N11          3.3112     5.9898     3.9559 N.pl3        1    LIG   0.0000
  12 C12          4.1015     6.3812     5.1317 C.3          1    LIG   0.0000
  13 C13          3.5393     5.7263     6.3829 C.3          1    LIG   0.0000
  14 C14          4.3630     6.1284     7.5955 C.3          1    LIG   0.0000
  15 C15          5.8142     5.7166     7.4057 C.3          1    LIG   0.0000
  16 C16          6.3707     6.3792     6.1555 C.3          1    LIG   0.0000
  17 C17          5.5546     5.9796     4.9366 C.3          1    LIG   0.0000
  18 N18          4.1508     3.7620     4.0767 N.ar         1    LIG   0.0000
  19 C19          4.1980     2.5081     3.6013 C.ar         1    LIG   0.0000
  20 N20          3.4653     2.1651     2.5290 N.ar         1    LIG   0.0000
  21 C21          2.6710     3.0402     1.8878 C.ar         1    LIG   0.0000
  22 C22          0.0701     1.5522     0.0613 C.3          1    LIG   0.0000
  23 O23         -0.4872     2.0154     1.2823 O.3          1    LIG   0.0000
  24 C24          0.0937     0.0406     0.0147 C.3          1    LIG   0.0000
  25 O25         -1.0732    -0.5264     0.5945 O.3          1    LIG   0.0000
  26 H            1.1205    -0.0866     1.8440 H            1    LIG   0.0000
  27 H           -0.4237     1.9274    -0.7232 H            1    LIG   0.0000
  28 H            0.2302    -0.2899    -0.9191 H            1    LIG   0.0000
  29 H            2.3084    -2.7284    -0.9985 H            1    LIG   0.0000
  30 H            2.6931    -1.7698     1.0451 H            1    LIG   0.0000
  31 H            1.1528    -2.3000     0.9313 H            1    LIG   0.0000
  32 H            1.7894     2.0684    -0.9821 H            1    LIG   0.0000
  33 H            0.6346     4.5212    -0.0812 H            1    LIG   0.0000
  34 H            2.7287     6.6619     3.4987 H            1    LIG   0.0000
  35 H            4.0525     7.3744     5.2374 H            1    LIG   0.0000
  36 H            3.5682     4.7322     6.2779 H            1    LIG   0.0000
  37 H            2.5924     6.0203     6.5136 H            1    LIG   0.0000
  38 H            3.9955     5.6773     8.4087 H            1    LIG   0.0000
  39 H            4.3141     7.1202     7.7137 H            1    LIG   0.0000
  40 H            5.8685     4.7229     7.3085 H            1    LIG   0.0000
  41 H            6.3486     6.0034     8.2008 H            1    LIG   0.0000
  42 H            6.3347     7.3725     6.2651 H            1    LIG   0.0000
  43 H            7.3198     6.0923     6.0252 H            1    LIG   0.0000
  44 H            5.9200     6.4401     4.1276 H            1    LIG   0.0000
  45 H            5.6107     4.9892     4.8102 H            1    LIG   0.0000
  46 H            4.7800     1.8275     4.0463 H            1    LIG   0.0000
  47 H           -0.4916     3.0154     1.2885 H            1    LIG   0.0000
  48 H           -1.8620    -0.3360     0.0101 H            1    LIG   0.0000
@<TRIPOS>BOND
   1        1        2 1
   2        2        3 1
   3        3        4 1
   4        4        5 1
   5        5        6 1
   6        6        7 1
   7        7        8 2
   8        8        9 1
   9        9       10 ar
  10       10       11 1
  11       11       12 1
  12       12       13 1
  13       13       14 1
  14       14       15 1
  15       15       16 1
  16       16       17 1
  17       17       12 1
  18       10       18 ar
  19       18       19 ar
  20       19       20 ar
  21       20       21 ar
  22       21        9 ar
  23       21        6 1
  24        5       22 1
  25       22       23 1
  26       22       24 1
  27       24        3 1
  28       24       25 1
  29        3       26 1
  30       22       27 1
  31       24       28 1
  32        1       29 1
  33        2       30 1
  34        2       31 1
  35        5       32 1
  36        7       33 1
  37       11       34 1
  38       12       35 1
  39       13       36 1
  40       13       37 1
  41       14       38 1
  42       14       39 1
  43       15       40 1
  44       15       41 1
  45       16       42 1
  46       16       43 1
  47       17       44 1
  48       17       45 1
  49       19       46 1
  50       23       47 1
  51       25       48 1

@<TRIPOS>MOLECULE
CHEMBL85549
  48   51
SMALL
USER_CHARGES
@<TRIPOS>ATOM
   1 O1           1.9764    -1.8037    -0.8118 O.3          1    LIG   0.0000
   2 C2           1.8141    -1.6328     0.5885 C.3          1    LIG   0.0000
   3 C3           1.3094    -0.2274     0.8722 C.3          1    LIG   0.0000
   4 O4           2.2595     0.6945     0.3793 O.3          1    LIG   0.0000
   5 C5           1.5538     1.8563    -0.0337 C.3          1    LIG   0.0000
   6 N6           1.8323     3.0253     0.8117 N.pl3        1    LIG   0.0000
   7 C7           1.2824     4.2599     0.6344 C.2          1    LIG   0.0000
   8 N8           1.7586     5.0439     1.5751 N.2          1    LIG   0.0000
   9 C9           2.6165     4.3295     2.3613 C.ar         1    LIG   0.0000
  10 C10          3.3739     4.6761     3.4760 C.ar         1    LIG   0.0000
  11 N11          3.3112     5.9898     3.9559 N.pl3        1    LIG   0.0000
  12 C12          4.1015     6.3812     5.1317 C.3          1    LIG   0.0000
  13 C13          5.5810     6.4079     4.7837 C.3          1    LIG   0.0000
  14 C14          6.3942     6.8192     6.0004 C.3          1    LIG   0.0000
  15 C15          5.9545     8.1904     6.4880 C.3          1    LIG   0.0000
  16 C16          4.4754     8.1545     6.8385 C.3          1    LIG   0.0000
  17 C17          3.6537     7.7473     5.6259 C.3          1    LIG   0.0000
  18 N18          4.1508     3.7620     4.0767 N.ar         1    LIG   0.0000
  19 C19          4.1980     2.5081     3.6013 C.ar         1    LIG   0.0000
  20 N20          3.4653     2.1651     2.5290 N.ar         1    LIG   0.0000
  21 C21          2.6710     3.0402     1.8878 C.ar         1    LIG   0.0000
  22 C22          0.0701     1.5522     0.0613 C.3          1    LIG   0.0000
  23 O23         -0.4872     2.0154     1.2823 O.3          1    LIG   0.0000
  24 C24          0.0937     0.0406     0.0147 C.3          1    LIG   0.0000
  25 O25         -1.0732    -0.5264     0.5945 O.3          1    LIG   0.0000
  26 H            1.1205    -0.0866     1.8440 H            1    LIG   0.0000
  27 H           -0.4237     1.9274    -0.7232 H            1    LIG   0.0000
  28 H            0.2302    -0.2899    -0.9191 H            1    LIG   0.0000
  29 H            2.3084    -2.7284    -0.9985 H            1    LIG   0.0000
  30 H            2.6931    -1.7698     1.0451 H            1    LIG   0.0000
  31 H            1.1528    -2.3000     0.9313 H            1    LIG   0.0000
  32 H            1.7894     2.0684    -0.9821 H            1    LIG   0.0000
  33 H            0.6346     4.5212    -0.0812 H            1    LIG   0.0000
  34 H            2.7287     6.6619     3.4987 H            1    LIG   0.0000
  35 H            3.9529     5.7105     5.8583 H            1    LIG   0.0000
  36 H            5.7356     7.0639     4.0449 H            1    LIG   0.0000
  37 H            5.8677     5.4972     4.4863 H            1    LIG   0.0000
  38 H            7.3630     6.8512     5.7545 H            1    LIG   0.0000
  39 H            6.2575     6.1497     6.7305 H            1    LIG   0.0000
  40 H            6.1098     8.8659     5.7672 H            1    LIG   0.0000
  41 H            6.4831     8.4409     7.2991 H            1    LIG   0.0000
  42 H            4.3270     7.4937     7.5742 H            1    LIG   0.0000
  43 H            4.1866     9.0624     7.1425 H            1    LIG   0.0000
  44 H            2.6870     7.7078     5.8787 H            1    LIG   0.0000
  45 H            3.7806     8.4211     4.8980 H            1    LIG   0.0000
  46 H            4.7800     1.8275     4.0463 H            1    LIG   0.0000
  47 H           -0.4916     3.0154     1.2885 H            1    LIG   0.0000
  48 H           -1.8620    -0.3360     0.0101 H            1    LIG   0.0000
@<TRIPOS>BOND
   1        1        2 1
   2        2        3 1
   3        3        4 1
   4        4        5 1
   5        5        6 1
   6        6        7 1
   7        7        8 2
   8        8        9 1
   9        9       10 ar
  10       10       11 1
  11       11       12 1
  12       12       13 1
  13       13       14 1
  14       14       15 1
  15       15       16 1
  16       16       17 1
  17       17       12 1
  18       10       18 ar
  19       18       19 ar
  20       19       20 ar
  21       20       21 ar
  22       21        9 ar
  23       21        6 1
  24        5       22 1
  25       22       23 1
  26       22       24 1
  27       24        3 1
  28       24       25 1
  29        3       26 1
  30       22       27 1
  31       24       28 1
  32        1       29 1
  33        2       30 1
  34        2       31 1
  35        5       32 1
  36        7       33 1
  37       11       34 1
  38       12       35 1
  39       13       36 1
  40       13       37 1
  41       14       38 1
  42       14       39 1
  43       15       40 1
  44       15       41 1
  45       16       42 1
  46       16       43 1
  47       17       44 1
  48       17       45 1
  49       19       46 1
  50       23       47 1
  51       25       48 1

@<TRIPOS>MOLECULE
CHEMBL85549
  48   51
SMALL
USER_CHARGES
@<TRIPOS>ATOM
   1 O1           1.9764    -1.8037    -0.8118 O.3          1    LIG   0.0000
   2 C2           1.8141    -1.6328     0.5885 C.3          1    LIG   0.0000
   3 C3           1.3094    -0.2274     0.8722 C.3          1    LIG   0.0000
   4 O4           2.2595     0.6945     0.3793 O.3          1    LIG   0.0000
   5 C5           1.5538     1.8563    -0.0337 C.3          1    LIG   0.0000
   6 N6           1.8323     3.0253     0.8117 N.pl3        1    LIG   0.0000
   7 C7           1.2824     4.2599     0.6344 C.2          1    LIG   0.0000
   8 N8           1.7586     5.0439     1.5751 N.2          1    LIG   0.0000
   9 C9           2.6165     4.3295     2.3613 C.ar         1    LIG   0.0000
  10 C10          3.3739     4.6761     3.4760 C.ar         1    LIG   0.0000
  11 N11          3.3112     5.9898     3.9559 N.pl3        1    LIG   0.0000
  12 C12          4.1015     6.3812     5.1317 C.3          1    LIG   0.0000
  13 C13          3.8667     7.8475     5.4568 C.3          1    LIG   0.0000
  14 C14          4.6807     8.2466     6.6769 C.3          1    LIG   0.0000
  15 C15          4.2967     7.3861     7.8700 C.3          1    LIG   0.0000
  16 C16          4.5388     5.9220     7.5390 C.3          1    LIG   0.0000
  17 C17          3.7255     5.5129     6.3214 C.3          1    LIG   0.0000
  18 N18          4.1508     3.7620     4.0767 N.ar         1    LIG   0.0000
  19 C19          4.1980     2.5081     3.6013 C.ar         1    LIG   0.0000
  20 N20          3.4653     2.1651     2.5290 N.ar         1    LIG   0.0000
  21 C21          2.6710     3.0402     1.8878 C.ar         1    LIG   0.0000
  22 C22          0.0701     1.5522     0.0613 C.3          1    LIG   0.0000
  23 O23         -0.4872     2.0154     1.2823 O.3          1    LIG   0.0000
  24 C24          0.0937     0.0406     0.0147 C.3          1    LIG   0.0000
  25 O25         -1.0732    -0.5264     0.5945 O.3          1    LIG   0.0000
  26 H            1.1205    -0.0866     1.8440 H            1    LIG   0.0000
  27 H           -0.4237     1.9274    -0.7232 H            1    LIG   0.0000
  28 H            0.2302    -0.2899    -0.9191 H            1    LIG   0.0000
  29 H            2.3084    -2.7284    -0.9985 H            1    LIG   0.0000
  30 H            2.6931    -1.7698     1.0451 H            1    LIG   0.0000
  31 H            1.1528    -2.3000     0.9313 H            1    LIG   0.0000
  32 H            1.7894     2.0684    -0.9821 H            1    LIG   0.0000
  33 H            0.6346     4.5212    -0.0812 H            1    LIG   0.0000
  34 H            2.7287     6.6619     3.4987 H            1    LIG   0.0000
  35 H            5.0713     6.2471     4.9279 H            1    LIG   0.0000
  36 H            2.8954     7.9936     5.6445 H            1    LIG   0.0000
  37 H            4.1434     8.4081     4.6763 H            1    LIG   0.0000
  38 H            4.5039     9.2070     6.8921 H            1    LIG   0.0000
  39 H            5.6532     8.1227     6.4799 H            1    LIG   0.0000
  40 H            3.3293     7.5240     8.0827 H            1    LIG   0.0000
  41 H            4.8520     7.6452     8.6602 H            1    LIG   0.0000
  42 H            5.5105     5.7836     7.3480 H            1    LIG   0.0000
  43 H            4.2690     5.3586     8.3200 H            1    LIG   0.0000
  44 H            3.9123     4.5547     6.1046 H            1    LIG   0.0000
  45 H            2.7519     5.6260     6.5198 H            1    LIG   0.0000
  46 H            4.7800     1.8275     4.0463 H            1    LIG   0.0000
  47 H           -0.4916     3.0154     1.2885 H            1    LIG   0.0000
  48 H           -1.8620    -0.3360     0.0101 H            1    LIG   0.0000
@<TRIPOS>BOND
   1        1        2 1
   2        2        3 1
   3        3        4 1
   4        4        5 1
   5        5        6 1
   6        6        7 1
   7        7        8 2
   8        8        9 1
   9        9       10 ar
  10       10       11 1
  11       11       12 1
  12       12       13 1
  13       13       14 1
  14       14       15 1
  15       15       16 1
  16       16       17 1
  17       17       12 1
  18       10       18 ar
  19       18       19 ar
  20       19       20 ar
  21       20       21 ar
  22       21        9 ar
  23       21        6 1
  24        5       22 1
  25       22       23 1
  26       22       24 1
  27       24        3 1
  28       24       25 1
  29        3       26 1
  30       22       27 1
  31       24       28 1
  32        1       29 1
  33        2       30 1
  34        2       31 1
  35        5       32 1
  36        7       33 1
  37       11       34 1
  38       12       35 1
  39       13       36 1
  40       13       37 1
  41       14       38 1
  42       14       39 1
  43       15       40 1
  44       15       41 1
  45       16       42 1
  46       16       43 1
  47       17       44 1
  48       17       45 1
  49       19       46 1
  50       23       47 1
  51       25       48 1

@<TRIPOS>MOLECULE
CHEMBL85549
  48   51
SMALL
USER_CHARGES
@<TRIPOS>ATOM
   1 O1           1.3802     2.7683     2.2165 O.3          1    LIG   0.0000
   2 C2           1.7860     3.0786     0.8916 C.3          1    LIG   0.0000
   3 C3           1.5340     1.8820    -0.0083 C.3          1    LIG   0.0000
   4 O4           2.2497     0.7265     0.4097 O.3          1    LIG   0.0000
   5 C5           1.3140    -0.2104     0.9081 C.3          1    LIG   0.0000
   6 N6           1.8719    -1.5508     0.6824 N.pl3        1    LIG   0.0000
   7 C7           2.1383    -2.4562     1.6658 C.2          1    LIG   0.0000
   8 N8           2.6209    -3.5345     1.0908 N.2          1    LIG   0.0000
   9 C9           2.6735    -3.3362    -0.2593 C.ar         1    LIG   0.0000
  10 C10          3.0943    -4.1470    -1.3090 C.ar         1    LIG   0.0000
  11 N11          3.5756    -5.4302    -1.0231 N.pl3        1    LIG   0.0000
  12 C12          4.0261    -6.3060    -2.1139 C.3          1    LIG   0.0000
  13 C13          2.8395    -6.7634    -2.9468 C.3          1    LIG   0.0000
  14 C14          3.3039    -7.6655    -4.0789 C.3          1    LIG   0.0000
  15 C15          4.0322    -8.8696    -3.5037 C.3          1    LIG   0.0000
  16 C16          5.2250    -8.4176    -2.6765 C.3          1    LIG   0.0000
  17 C17          4.7629    -7.5093    -1.5484 C.3          1    LIG   0.0000
  18 N18          3.0383    -3.7005    -2.5729 N.ar         1    LIG   0.0000
  19 C19          2.5745    -2.4672    -2.8265 C.ar         1    LIG   0.0000
  20 N20          2.1614    -1.6812    -1.8186 N.ar         1    LIG   0.0000
  21 C21          2.1963    -2.0768    -0.5340 C.ar         1    LIG   0.0000
  22 C22          0.1048    -0.0102     0.0162 C.3          1    LIG   0.0000
  23 O23          0.3461    -0.5282    -1.2881 O.3          1    LIG   0.0000
  24 C24          0.0699     1.5063     0.0014 C.3          1    LIG   0.0000
  25 O25         -0.6188     2.0044    -1.1365 O.3          1    LIG   0.0000
  26 H            1.8052     2.1135    -0.9426 H            1    LIG   0.0000
  27 H           -0.7236    -0.3966     0.4217 H            1    LIG   0.0000
  28 H           -0.3630     1.8450     0.8367 H            1    LIG   0.0000
  29 H            1.5462     3.5564     2.8092 H            1    LIG   0.0000
  30 H            2.7609     3.3011     0.8850 H            1    LIG   0.0000
  31 H            1.2629     3.8627     0.5577 H            1    LIG   0.0000
  32 H            1.0999    -0.0505     1.8718 H            1    LIG   0.0000
  33 H            1.9928    -2.3239     2.6463 H            1    LIG   0.0000
  34 H            3.6129    -5.7509    -0.0766 H            1    LIG   0.0000
  35 H            4.6520    -5.7924    -2.7008 H            1    LIG   0.0000
  36 H            2.3784    -5.9634    -3.3308 H            1    LIG   0.0000
  37 H            2.2023    -7.2675    -2.3638 H            1    LIG   0.0000
  38 H            3.9226    -7.1569    -4.6776 H            1    LIG   0.0000
  39 H            2.5114    -7.9754    -4.6042 H            1    LIG   0.0000
  40 H            4.3509    -9.4511    -4.2522 H            1    LIG   0.0000
  41 H            3.4050    -9.3881    -2.9226 H            1    LIG   0.0000
  42 H            5.6825    -9.2186    -2.2902 H            1    LIG   0.0000
  43 H            5.8641    -7.9190    -3.2622 H            1    LIG   0.0000
  44 H            4.1499    -8.0184    -0.9442 H            1    LIG   0.0000
  45 H            5.5582    -7.1961    -1.0293 H            1    LIG   0.0000
  46 H            2.5363    -2.1324    -3.7681 H            1    LIG   0.0000
  47 H            0.3645    -1.5273    -1.2518 H            1    LIG   0.0000
  48 H           -1.5803     1.7335    -1.0892 H            1    LIG   0.0000
@<TRIPOS>BOND
   1        1        2 1
   2        2        3 1
   3        3        4 1
   4        4        5 1
   5        5        6 1
   6        6        7 1
   7        7        8 2
   8        8        9 1
   9        9       10 ar
  10       10       11 1
  11       11       12 1
  12       12       13 1
  13       13       14 1
  14       14       15 1
  15       15       16 1
  16       16       17 1
  17       17       12 1
  18       10       18 ar
  19       18       19 ar
  20       19       20 ar
  21       20       21 ar
  22       21        9 ar
  23       21        6 1
  24        5       22 1
  25       22       23 1
  26       22       24 1
  27       24        3 1
  28       24       25 1
  29        3       26 1
  30       22       27 1
  31       24       28 1
  32        1       29 1
  33        2       30 1
  34        2       31 1
  35        5       32 1
  36        7       33 1
  37       11       34 1
  38       12       35 1
  39       13       36 1
  40       13       37 1
  41       14       38 1
  42       14       39 1
  43       15       40 1
  44       15       41 1
  45       16       42 1
  46       16       43 1
  47       17       44 1
  48       17       45 1
  49       19       46 1
  50       23       47 1
  51       25       48 1

@<TRIPOS>MOLECULE
CHEMBL85549
  48   51
SMALL
USER_CHARGES
@<TRIPOS>ATOM
   1 O1           1.3802     2.7683     2.2165 O.3          1    LIG   0.0000
   2 C2           1.7860     3.0786     0.8916 C.3          1    LIG   0.0000
   3 C3           1.5340     1.8820    -0.0083 C.3          1    LIG   0.0000
   4 O4           2.2497     0.7265     0.4097 O.3          1    LIG   0.0000
   5 C5           1.3140    -0.2104     0.9081 C.3          1    LIG   0.0000
   6 N6           1.8719    -1.5508     0.6824 N.pl3        1    LIG   0.0000
   7 C7           2.1383    -2.4562     1.6658 C.2          1    LIG   0.0000
   8 N8           2.6209    -3.5345     1.0908 N.2          1    LIG   0.0000
   9 C9           2.6735    -3.3362    -0.2593 C.ar         1    LIG   0.0000
  10 C10          3.0943    -4.1470    -1.3090 C.ar         1    LIG   0.0000
  11 N11          3.5756    -5.4302    -1.0231 N.pl3        1    LIG   0.0000
  12 C12          4.0261    -6.3060    -2.1139 C.3          1    LIG   0.0000
  13 C13          5.3213    -5.7800    -2.7113 C.3          1    LIG   0.0000
  14 C14          5.7917    -6.6873    -3.8368 C.3          1    LIG   0.0000
  15 C15          4.7172    -6.7666    -4.9092 C.3          1    LIG   0.0000
  16 C16          3.4220    -7.3001    -4.3183 C.3          1    LIG   0.0000
  17 C17          2.9542    -6.3978    -3.1878 C.3          1    LIG   0.0000
  18 N18          3.0383    -3.7005    -2.5729 N.ar         1    LIG   0.0000
  19 C19          2.5745    -2.4672    -2.8265 C.ar         1    LIG   0.0000
  20 N20          2.1614    -1.6812    -1.8186 N.ar         1    LIG   0.0000
  21 C21          2.1963    -2.0768    -0.5340 C.ar         1    LIG   0.0000
  22 C22          0.1048    -0.0102     0.0162 C.3          1    LIG   0.0000
  23 O23          0.3461    -0.5282    -1.2881 O.3          1    LIG   0.0000
  24 C24          0.0699     1.5063     0.0014 C.3          1    LIG   0.0000
  25 O25         -0.6188     2.0044    -1.1365 O.3          1    LIG   0.0000
  26 H            1.8052     2.1135    -0.9426 H            1    LIG   0.0000
  27 H           -0.7236    -0.3966     0.4217 H            1    LIG   0.0000
  28 H           -0.3630     1.8450     0.8367 H            1    LIG   0.0000
  29 H            1.5462     3.5564     2.8092 H            1    LIG   0.0000
  30 H            2.7609     3.3011     0.8850 H            1    LIG   0.0000
  31 H            1.2629     3.8627     0.5577 H            1    LIG   0.0000
  32 H            1.0999    -0.0505     1.8718 H            1    LIG   0.0000
  33 H            1.9928    -2.3239     2.6463 H            1    LIG   0.0000
  34 H            3.6129    -5.7509    -0.0766 H            1    LIG   0.0000
  35 H            4.1905    -7.2207    -1.7447 H            1    LIG   0.0000
  36 H            6.0230    -5.7467    -1.9996 H            1    LIG   0.0000
  37 H            5.1682    -4.8599    -3.0719 H            1    LIG   0.0000
  38 H            5.9690    -7.6025    -3.4747 H            1    LIG   0.0000
  39 H            6.6317    -6.3174    -4.2337 H            1    LIG   0.0000
  40 H            5.0236    -7.3778    -5.6389 H            1    LIG   0.0000
  41 H            4.5574    -5.8535    -5.2844 H            1    LIG   0.0000
  42 H            2.7205    -7.3290    -5.0305 H            1    LIG   0.0000
  43 H            3.5752    -8.2225    -3.9638 H            1    LIG   0.0000
  44 H            2.7692    -5.4839    -3.5492 H            1    LIG   0.0000
  45 H            2.1180    -6.7740    -2.7889 H            1    LIG   0.0000
  46 H            2.5363    -2.1324    -3.7681 H            1    LIG   0.0000
  47 H            0.3645    -1.5273    -1.2518 H            1    LIG   0.0000
  48 H           -1.5803     1.7335    -1.0892 H            1    LIG   0.0000
@<TRIPOS>BOND
   1        1        2 1
   2        2        3 1
   3        3        4 1
   4        4        5 1
   5        5        6 1
   6        6        7 1
   7        7        8 2
   8        8        9 1
   9        9       10 ar
  10       10       11 1
  11       11       12 1
  12       12       13 1
  13       13       14 1
  14       14       15 1
  15       15       16 1
  16       16       17 1
  17       17       12 1
  18       10       18 ar
  19       18       19 ar
  20       19       20 ar
  21       20       21 ar
  22       21        9 ar
  23       21        6 1
  24        5       22 1
  25       22       23 1
  26       22       24 1
  27       24        3 1
  28       24       25 1
  29        3       26 1
  30       22       27 1
  31       24       28 1
  32        1       29 1
  33        2       30 1
  34        2       31 1
  35        5       32 1
  36        7       33 1
  37       11       34 1
  38       12       35 1
  39       13       36 1
  40       13       37 1
  41       14       38 1
  42       14       39 1
  43       15       40 1
  44       15       41 1
  45       16       42 1
  46       16       43 1
  47       17       44 1
  48       17       45 1
  49       19       46 1
  50       23       47 1
  51       25       48 1

@<TRIPOS>MOLECULE
CHEMBL85549
  48   51
SMALL
USER_CHARGES
@<TRIPOS>ATOM
   1 O1           1.3802     2.7683     2.2165 O.3          1    LIG   0.0000
   2 C2           1.7860     3.0786     0.8916 C.3          1    LIG   0.0000
   3 C3           1.5340     1.8820    -0.0083 C.3          1    LIG   0.0000
   4 O4           2.2497     0.7265     0.4097 O.3          1    LIG   0.0000
   5 C5           1.3140    -0.2104     0.9081 C.3          1    LIG   0.0000
   6 N6           1.8719    -1.5508     0.6824 N.pl3        1    LIG   0.0000
   7 C7           2.1383    -2.4562     1.6658 C.2          1    LIG   0.0000
   8 N8           2.6209    -3.5345     1.0908 N.2          1    LIG   0.0000
   9 C9           2.6735    -3.3362    -0.2593 C.ar         1    LIG   0.0000
  10 C10          3.0943    -4.1470    -1.3090 C.ar         1    LIG   0.0000
  11 N11          3.5756    -5.4302    -1.0231 N.pl3        1    LIG   0.0000
  12 C12          4.0261    -6.3060    -2.1139 C.3          1    LIG   0.0000
  13 C13          4.5014    -7.6386    -1.5577 C.3          1    LIG   0.0000
  14 C14          4.9632    -8.5480    -2.6851 C.3          1    LIG   0.0000
  15 C15          6.0874    -7.8735    -3.4546 C.3          1    LIG   0.0000
  16 C16          5.6144    -6.5438    -4.0201 C.3          1    LIG   0.0000
  17 C17          5.1453    -5.6361    -2.8944 C.3          1    LIG   0.0000
  18 N18          3.0383    -3.7005    -2.5729 N.ar         1    LIG   0.0000
  19 C19          2.5745    -2.4672    -2.8265 C.ar         1    LIG   0.0000
  20 N20          2.1614    -1.6812    -1.8186 N.ar         1    LIG   0.0000
  21 C21          2.1963    -2.0768    -0.5340 C.ar         1    LIG   0.0000
  22 C22          0.1048    -0.0102     0.0162 C.3          1    LIG   0.0000
  23 O23          0.3461    -0.5282    -1.2881 O.3          1    LIG   0.0000
  24 C24          0.0699     1.5063     0.0014 C.3          1    LIG   0.0000
  25 O25         -0.6188     2.0044    -1.1365 O.3          1    LIG   0.0000
  26 H            1.8052     2.1135    -0.9426 H            1    LIG   0.0000
  27 H           -0.7236    -0.3966     0.4217 H            1    LIG   0.0000
  28 H           -0.3630     1.8450     0.8367 H            1    LIG   0.0000
  29 H            1.5462     3.5564     2.8092 H            1    LIG   0.0000
  30 H            2.7609     3.3011     0.8850 H            1    LIG   0.0000
  31 H            1.2629     3.8627     0.5577 H            1    LIG   0.0000
  32 H            1.0999    -0.0505     1.8718 H            1    LIG   0.0000
  33 H            1.9928    -2.3239     2.6463 H            1    LIG   0.0000
  34 H            3.6129    -5.7509    -0.0766 H            1    LIG   0.0000
  35 H            3.2574    -6.4712    -2.7318 H            1    LIG   0.0000
  36 H            3.7491    -8.0781    -1.0669 H            1    LIG   0.0000
  37 H            5.2626    -7.4807    -0.9288 H            1    LIG   0.0000
  38 H            4.1977    -8.7276    -3.3029 H            1    LIG   0.0000
  39 H            5.2926    -9.4113    -2.3028 H            1    LIG   0.0000
  40 H            6.3762    -8.4675    -4.2055 H            1    LIG   0.0000
  41 H            6.8596    -7.7146    -2.8394 H            1    LIG   0.0000
  42 H            6.3690    -6.1041    -4.5071 H            1    LIG   0.0000
  43 H            4.8573    -6.7040    -4.6534 H            1    LIG   0.0000
  44 H            5.9114    -5.4492    -2.2794 H            1    LIG   0.0000
  45 H            4.8105    -4.7766    -3.2806 H            1    LIG   0.0000
  46 H            2.5363    -2.1324    -3.7681 H            1    LIG   0.0000
  47 H            0.3645    -1.5273    -1.2518 H            1    LIG   0.0000
  48 H           -1.5803     1.7335    -1.0892 H            1    LIG   0.0000
@<TRIPOS>BOND
   1        1        2 1
   2        2        3 1
   3        3        4 1
   4        4        5 1
   5        5        6 1
   6        6        7 1
   7        7        8 2
   8        8        9 1
   9        9       10 ar
  10       10       11 1
  11       11       12 1
  12       12       13 1
  13       13       14 1
  14       14       15 1
  15       15       16 1
  16       16       17 1
  17       17       12 1
  18       10       18 ar
  19       18       19 ar
  20       19       20 ar
  21       20       21 ar
  22       21        9 ar
  23       21        6 1
  24        5       22 1
  25       22       23 1
  26       22       24 1
  27       24        3 1
  28       24       25 1
  29        3       26 1
  30       22       27 1
  31       24       28 1
  32        1       29 1
  33        2       30 1
  34        2       31 1
  35        5       32 1
  36        7       33 1
  37       11       34 1
  38       12       35 1
  39       13       36 1
  40       13       37 1
  41       14       38 1
  42       14       39 1
  43       15       40 1
  44       15       41 1
  45       16       42 1
  46       16       43 1
  47       17       44 1
  48       17       45 1
  49       19       46 1
  50       23       47 1
  51       25       48 1

@<TRIPOS>MOLECULE
CHEMBL85549
  48   51
SMALL
USER_CHARGES
@<TRIPOS>ATOM
   1 O1           1.3802     2.7683     2.2165 O.3          1    LIG   0.0000
   2 C2           1.7860     3.0786     0.8916 C.3          1    LIG   0.0000
   3 C3           1.5340     1.8820    -0.0083 C.3          1    LIG   0.0000
   4 O4           2.2497     0.7265     0.4097 O.3          1    LIG   0.0000
   5 C5           1.3140    -0.2104     0.9081 C.3          1    LIG   0.0000
   6 N6           1.8719    -1.5508     0.6824 N.pl3        1    LIG   0.0000
   7 C7           2.1383    -2.4562     1.6658 C.2          1    LIG   0.0000
   8 N8           2.6209    -3.5345     1.0908 N.2          1    LIG   0.0000
   9 C9           2.6735    -3.3362    -0.2593 C.ar         1    LIG   0.0000
  10 C10          3.0943    -4.1470    -1.3090 C.ar         1    LIG   0.0000
  11 N11          3.5756    -5.4302    -1.0231 N.pl3        1    LIG   0.0000
  12 C12          4.0262    -6.3061    -2.1140 C.3          1    LIG   0.0000
  13 C13          2.8378    -6.7619    -2.9451 C.3          1    LIG   0.0000
  14 C14          3.3086    -7.6622    -4.0759 C.3          1    LIG   0.0000
  15 C15          4.3016    -6.9229    -4.9583 C.3          1    LIG   0.0000
  16 C16          5.4891    -6.4745    -4.1212 C.3          1    LIG   0.0000
  17 C17          5.0278    -5.5703    -2.9894 C.3          1    LIG   0.0000
  18 N18          3.0383    -3.7005    -2.5729 N.ar         1    LIG   0.0000
  19 C19          2.5745    -2.4672    -2.8265 C.ar         1    LIG   0.0000
  20 N20          2.1614    -1.6812    -1.8186 N.ar         1    LIG   0.0000
  21 C21          2.1963    -2.0768    -0.5340 C.ar         1    LIG   0.0000
  22 C22          0.1048    -0.0102     0.0162 C.3          1    LIG   0.0000
  23 O23          0.3461    -0.5282    -1.2881 O.3          1    LIG   0.0000
  24 C24          0.0699     1.5063     0.0014 C.3          1    LIG   0.0000
  25 O25         -0.6188     2.0044    -1.1365 O.3          1    LIG   0.0000
  26 H            1.8052     2.1135    -0.9426 H            1    LIG   0.0000
  27 H           -0.7236    -0.3966     0.4217 H            1    LIG   0.0000
  28 H           -0.3630     1.8450     0.8367 H            1    LIG   0.0000
  29 H            1.5462     3.5564     2.8092 H            1    LIG   0.0000
  30 H            2.7609     3.3011     0.8850 H            1    LIG   0.0000
  31 H            1.2629     3.8627     0.5577 H            1    LIG   0.0000
  32 H            1.0999    -0.0505     1.8718 H            1    LIG   0.0000
  33 H            1.9928    -2.3239     2.6463 H            1    LIG   0.0000
  34 H            3.6129    -5.7509    -0.0766 H            1    LIG   0.0000
  35 H            4.4715    -7.1099    -1.7196 H            1    LIG   0.0000
  36 H            2.3760    -5.9623    -3.3290 H            1    LIG   0.0000
  37 H            2.2009    -7.2672    -2.3629 H            1    LIG   0.0000
  38 H            2.5212    -7.9403    -4.6261 H            1    LIG   0.0000
  39 H            3.7491    -8.4731    -3.6907 H            1    LIG   0.0000
  40 H            3.8575    -6.1229    -5.3619 H            1    LIG   0.0000
  41 H            4.6178    -7.5313    -5.6862 H            1    LIG   0.0000
  42 H            5.9435    -7.2781    -3.7368 H            1    LIG   0.0000
  43 H            6.1314    -5.9742    -4.7018 H            1    LIG   0.0000
  44 H            5.8169    -5.3022    -2.4367 H            1    LIG   0.0000
  45 H            4.5962    -4.7536    -3.3724 H            1    LIG   0.0000
  46 H            2.5363    -2.1324    -3.7681 H            1    LIG   0.0000
  47 H            0.3645    -1.5273    -1.2518 H            1    LIG   0.0000
  48 H           -1.5803     1.7335    -1.0892 H            1    LIG   0.0000
@<TRIPOS>BOND
   1        1        2 1
   2        2        3 1
   3        3        4 1
   4        4        5 1
   5        5        6 1
   6        6        7 1
   7        7        8 2
   8        8        9 1
   9        9       10 ar
  10       10       11 1
  11       11       12 1
  12       12       13 1
  13       13       14 1
  14       14       15 1
  15       15       16 1
  16       16       17 1
  17       17       12 1
  18       10       18 ar
  19       18       19 ar
  20       19       20 ar
  21       20       21 ar
  22       21        9 ar
  23       21        6 1
  24        5       22 1
  25       22       23 1
  26       22       24 1
  27       24        3 1
  28       24       25 1
  29        3       26 1
  30       22       27 1
  31       24       28 1
  32        1       29 1
  33        2       30 1
  34        2       31 1
  35        5       32 1
  36        7       33 1
  37       11       34 1
  38       12       35 1
  39       13       36 1
  40       13       37 1
  41       14       38 1
  42       14       39 1
  43       15       40 1
  44       15       41 1
  45       16       42 1
  46       16       43 1
  47       17       44 1
  48       17       45 1
  49       19       46 1
  50       23       47 1
  51       25       48 1

@<TRIPOS>MOLECULE
CHEMBL85549
  48   51
SMALL
USER_CHARGES
@<TRIPOS>ATOM
   1 O1           1.3802     2.7683     2.2165 O.3          1    LIG   0.0000
   2 C2           1.7860     3.0786     0.8916 C.3          1    LIG   0.0000
   3 C3           1.5340     1.8820    -0.0083 C.3          1    LIG   0.0000
   4 O4           2.2497     0.7265     0.4097 O.3          1    LIG   0.0000
   5 C5           1.3140    -0.2104     0.9081 C.3          1    LIG   0.0000
   6 N6           1.8719    -1.5508     0.6824 N.pl3        1    LIG   0.0000
   7 C7           2.1383    -2.4562     1.6658 C.2          1    LIG   0.0000
   8 N8           2.6209    -3.5345     1.0908 N.2          1    LIG   0.0000
   9 C9           2.6735    -3.3362    -0.2593 C.ar         1    LIG   0.0000
  10 C10          3.0943    -4.1470    -1.3090 C.ar         1    LIG   0.0000
  11 N11          3.5756    -5.4302    -1.0231 N.pl3        1    LIG   0.0000
  12 C12          4.0262    -6.3061    -2.1140 C.3          1    LIG   0.0000
  13 C13          5.3212    -5.7779    -2.7095 C.3          1    LIG   0.0000
  14 C14          5.7870    -6.6898    -3.8330 C.3          1    LIG   0.0000
  15 C15          5.9979    -8.1021    -3.3110 C.3          1    LIG   0.0000
  16 C16          4.6976    -8.6251    -2.7215 C.3          1    LIG   0.0000
  17 C17          4.2258    -7.7206    -1.5942 C.3          1    LIG   0.0000
  18 N18          3.0383    -3.7005    -2.5729 N.ar         1    LIG   0.0000
  19 C19          2.5745    -2.4672    -2.8265 C.ar         1    LIG   0.0000
  20 N20          2.1614    -1.6812    -1.8186 N.ar         1    LIG   0.0000
  21 C21          2.1963    -2.0768    -0.5340 C.ar         1    LIG   0.0000
  22 C22          0.1048    -0.0102     0.0162 C.3          1    LIG   0.0000
  23 O23          0.3461    -0.5282    -1.2881 O.3          1    LIG   0.0000
  24 C24          0.0699     1.5063     0.0014 C.3          1    LIG   0.0000
  25 O25         -0.6188     2.0044    -1.1365 O.3          1    LIG   0.0000
  26 H            1.8052     2.1135    -0.9426 H            1    LIG   0.0000
  27 H           -0.7236    -0.3966     0.4217 H            1    LIG   0.0000
  28 H           -0.3630     1.8450     0.8367 H            1    LIG   0.0000
  29 H            1.5462     3.5564     2.8092 H            1    LIG   0.0000
  30 H            2.7609     3.3011     0.8850 H            1    LIG   0.0000
  31 H            1.2629     3.8627     0.5577 H            1    LIG   0.0000
  32 H            1.0999    -0.0505     1.8718 H            1    LIG   0.0000
  33 H            1.9928    -2.3239     2.6463 H            1    LIG   0.0000
  34 H            3.6129    -5.7509    -0.0766 H            1    LIG   0.0000
  35 H            3.3252    -6.3202    -2.8270 H            1    LIG   0.0000
  36 H            6.0231    -5.7439    -1.9981 H            1    LIG   0.0000
  37 H            5.1684    -4.8583    -3.0714 H            1    LIG   0.0000
  38 H            6.6484    -6.3429    -4.2041 H            1    LIG   0.0000
  39 H            5.0950    -6.7045    -4.5547 H            1    LIG   0.0000
  40 H            6.7048    -8.0938    -2.6037 H            1    LIG   0.0000
  41 H            6.2855    -8.6956    -4.0627 H            1    LIG   0.0000
  42 H            3.9991    -8.6523    -3.4366 H            1    LIG   0.0000
  43 H            4.8452    -9.5474    -2.3643 H            1    LIG   0.0000
  44 H            3.3599    -8.0661    -1.2324 H            1    LIG   0.0000
  45 H            4.9116    -7.7127    -0.8665 H            1    LIG   0.0000
  46 H            2.5363    -2.1324    -3.7681 H            1    LIG   0.0000
  47 H            0.3645    -1.5273    -1.2518 H            1    LIG   0.0000
  48 H           -1.5803     1.7335    -1.0892 H            1    LIG   0.0000
@<TRIPOS>BOND
   1        1        2 1
   2        2        3 1
   3        3        4 1
   4        4        5 1
   5        5        6 1
   6        6        7 1
   7        7        8 2
   8        8        9 1
   9        9       10 ar
  10       10       11 1
  11       11       12 1
  12       12       13 1
  13       13       14 1
  14       14       15 1
  15       15       16 1
  16       16       17 1
  17       17       12 1
  18       10       18 ar
  19       18       19 ar
  20       19       20 ar
  21       20       21 ar
  22       21        9 ar
  23       21        6 1
  24        5       22 1
  25       22       23 1
  26       22       24 1
  27       24        3 1
  28       24       25 1
  29        3       26 1
  30       22       27 1
  31       24       28 1
  32        1       29 1
  33        2       30 1
  34        2       31 1
  35        5       32 1
  36        7       33 1
  37       11       34 1
  38       12       35 1
  39       13       36 1
  40       13       37 1
  41       14       38 1
  42       14       39 1
  43       15       40 1
  44       15       41 1
  45       16       42 1
  46       16       43 1
  47       17       44 1
  48       17       45 1
  49       19       46 1
  50       23       47 1
  51       25       48 1

@<TRIPOS>MOLECULE
CHEMBL85549
  48   51
SMALL
USER_CHARGES
@<TRIPOS>ATOM
   1 O1           1.3802     2.7683     2.2165 O.3          1    LIG   0.0000
   2 C2           1.7860     3.0786     0.8916 C.3          1    LIG   0.0000
   3 C3           1.5340     1.8820    -0.0083 C.3          1    LIG   0.0000
   4 O4           2.2497     0.7265     0.4097 O.3          1    LIG   0.0000
   5 C5           1.3140    -0.2104     0.9081 C.3          1    LIG   0.0000
   6 N6           1.8719    -1.5508     0.6824 N.pl3        1    LIG   0.0000
   7 C7           2.1383    -2.4562     1.6658 C.2          1    LIG   0.0000
   8 N8           2.6209    -3.5345     1.0908 N.2          1    LIG   0.0000
   9 C9           2.6735    -3.3362    -0.2593 C.ar         1    LIG   0.0000
  10 C10          3.0943    -4.1470    -1.3090 C.ar         1    LIG   0.0000
  11 N11          3.5756    -5.4302    -1.0231 N.pl3        1    LIG   0.0000
  12 C12          4.0262    -6.3061    -2.1140 C.3          1    LIG   0.0000
  13 C13          4.5008    -7.6377    -1.5552 C.3          1    LIG   0.0000
  14 C14          4.9598    -8.5428    -2.6869 C.3          1    LIG   0.0000
  15 C15          3.8238    -8.7721    -3.6709 C.3          1    LIG   0.0000
  16 C16          3.3579    -7.4367    -4.2289 C.3          1    LIG   0.0000
  17 C17          2.8934    -6.5258    -3.1037 C.3          1    LIG   0.0000
  18 N18          3.0383    -3.7005    -2.5729 N.ar         1    LIG   0.0000
  19 C19          2.5745    -2.4672    -2.8265 C.ar         1    LIG   0.0000
  20 N20          2.1614    -1.6812    -1.8186 N.ar         1    LIG   0.0000
  21 C21          2.1963    -2.0768    -0.5340 C.ar         1    LIG   0.0000
  22 C22          0.1048    -0.0102     0.0162 C.3          1    LIG   0.0000
  23 O23          0.3461    -0.5282    -1.2881 O.3          1    LIG   0.0000
  24 C24          0.0699     1.5063     0.0014 C.3          1    LIG   0.0000
  25 O25         -0.6188     2.0044    -1.1365 O.3          1    LIG   0.0000
  26 H            1.8052     2.1135    -0.9426 H            1    LIG   0.0000
  27 H           -0.7236    -0.3966     0.4217 H            1    LIG   0.0000
  28 H           -0.3630     1.8450     0.8367 H            1    LIG   0.0000
  29 H            1.5462     3.5564     2.8092 H            1    LIG   0.0000
  30 H            2.7609     3.3011     0.8850 H            1    LIG   0.0000
  31 H            1.2629     3.8627     0.5577 H            1    LIG   0.0000
  32 H            1.0999    -0.0505     1.8718 H            1    LIG   0.0000
  33 H            1.9928    -2.3239     2.6463 H            1    LIG   0.0000
  34 H            3.6129    -5.7509    -0.0766 H            1    LIG   0.0000
  35 H            4.7881    -5.8651    -2.5882 H            1    LIG   0.0000
  36 H            3.7490    -8.0774    -1.0638 H            1    LIG   0.0000
  37 H            5.2629    -7.4805    -0.9271 H            1    LIG   0.0000
  38 H            5.2519    -9.4215    -2.3092 H            1    LIG   0.0000
  39 H            5.7271    -8.1130    -3.1629 H            1    LIG   0.0000
  40 H            3.0629    -9.2212    -3.2026 H            1    LIG   0.0000
  41 H            4.1437    -9.3527    -4.4197 H            1    LIG   0.0000
  42 H            4.1152    -7.0003    -4.7149 H            1    LIG   0.0000
  43 H            2.5998    -7.5907    -4.8625 H            1    LIG   0.0000
  44 H            2.6111    -5.6455    -3.4851 H            1    LIG   0.0000
  45 H            2.1193    -6.9488    -2.6329 H            1    LIG   0.0000
  46 H            2.5363    -2.1324    -3.7681 H            1    LIG   0.0000
  47 H            0.3645    -1.5273    -1.2518 H            1    LIG   0.0000
  48 H           -1.5803     1.7335    -1.0892 H            1    LIG   0.0000
@<TRIPOS>BOND
   1        1        2 1
   2        2        3 1
   3        3        4 1
   4        4        5 1
   5        5        6 1
   6        6        7 1
   7        7        8 2
   8        8        9 1
   9        9       10 ar
  10       10       11 1
  11       11       12 1
  12       12       13 1
  13       13       14 1
  14       14       15 1
  15       15       16 1
  16       16       17 1
  17       17       12 1
  18       10       18 ar
  19       18       19 ar
  20       19       20 ar
  21       20       21 ar
  22       21        9 ar
  23       21        6 1
  24        5       22 1
  25       22       23 1
  26       22       24 1
  27       24        3 1
  28       24       25 1
  29        3       26 1
  30       22       27 1
  31       24       28 1
  32        1       29 1
  33        2       30 1
  34        2       31 1
  35        5       32 1
  36        7       33 1
  37       11       34 1
  38       12       35 1
  39       13       36 1
  40       13       37 1
  41       14       38 1
  42       14       39 1
  43       15       40 1
  44       15       41 1
  45       16       42 1
  46       16       43 1
  47       17       44 1
  48       17       45 1
  49       19       46 1
  50       23       47 1
  51       25       48 1

@<TRIPOS>MOLECULE
CHEMBL85549
  48   51
SMALL
USER_CHARGES
@<TRIPOS>ATOM
   1 O1           1.3802     2.7683     2.2165 O.3          1    LIG   0.0000
   2 C2           1.7860     3.0786     0.8916 C.3          1    LIG   0.0000
   3 C3           1.5340     1.8820    -0.0083 C.3          1    LIG   0.0000
   4 O4           2.2497     0.7265     0.4097 O.3          1    LIG   0.0000
   5 C5           1.3140    -0.2104     0.9081 C.3          1    LIG   0.0000
   6 N6           1.8719    -1.5508     0.6824 N.pl3        1    LIG   0.0000
   7 C7           1.2833    -2.5188    -0.0755 C.2          1    LIG   0.0000
   8 N8           2.0678    -3.5725    -0.0504 N.2          1    LIG   0.0000
   9 C9           3.1609    -3.2983     0.7206 C.ar         1    LIG   0.0000
  10 C10          4.2761    -4.0552     1.0669 C.ar         1    LIG   0.0000
  11 N11          4.3846    -5.3635     0.5805 N.pl3        1    LIG   0.0000
  12 C12          5.5525    -6.1835     0.9317 C.3          1    LIG   0.0000
  13 C13          6.7970    -5.6526     0.2384 C.3          1    LIG   0.0000
  14 C14          8.0074    -6.4965     0.6044 C.3          1    LIG   0.0000
  15 C15          7.7614    -7.9411     0.1998 C.3          1    LIG   0.0000
  16 C16          6.5223    -8.4794     0.8971 C.3          1    LIG   0.0000
  17 C17          5.3124    -7.6319     0.5379 C.3          1    LIG   0.0000
  18 N18          5.2285    -3.5346     1.8555 N.ar         1    LIG   0.0000
  19 C19          5.1060    -2.2789     2.3123 C.ar         1    LIG   0.0000
  20 N20          4.0349    -1.5407     1.9775 N.ar         1    LIG   0.0000
  21 C21          3.0506    -2.0119     1.1919 C.ar         1    LIG   0.0000
  22 C22          0.1048    -0.0102     0.0162 C.3          1    LIG   0.0000
  23 O23          0.3461    -0.5282    -1.2881 O.3          1    LIG   0.0000
  24 C24          0.0699     1.5063     0.0014 C.3          1    LIG   0.0000
  25 O25         -0.6188     2.0044    -1.1365 O.3          1    LIG   0.0000
  26 H            1.8052     2.1135    -0.9426 H            1    LIG   0.0000
  27 H           -0.7236    -0.3966     0.4217 H            1    LIG   0.0000
  28 H           -0.3630     1.8450     0.8367 H            1    LIG   0.0000
  29 H            1.5462     3.5564     2.8092 H            1    LIG   0.0000
  30 H            2.7609     3.3011     0.8850 H            1    LIG   0.0000
  31 H            1.2629     3.8627     0.5577 H            1    LIG   0.0000
  32 H            1.0999    -0.0505     1.8718 H            1    LIG   0.0000
  33 H            0.4130    -2.4412    -0.5619 H            1    LIG   0.0000
  34 H            3.6675    -5.7401    -0.0059 H            1    LIG   0.0000
  35 H            5.6915    -6.1381     1.9209 H            1    LIG   0.0000
  36 H            6.9556    -4.7074     0.5241 H            1    LIG   0.0000
  37 H            6.6610    -5.6831    -0.7518 H            1    LIG   0.0000
  38 H            8.1606    -6.4486     1.5914 H            1    LIG   0.0000
  39 H            8.8130    -6.1489     0.1247 H            1    LIG   0.0000
  40 H            8.5526    -8.4954     0.4579 H            1    LIG   0.0000
  41 H            7.6298    -7.9887    -0.7904 H            1    LIG   0.0000
  42 H            6.3632    -9.4232     0.6073 H            1    LIG   0.0000
  43 H            6.6622    -8.4539     1.8870 H            1    LIG   0.0000
  44 H            5.1529    -7.6845    -0.4479 H            1    LIG   0.0000
  45 H            4.5102    -7.9781     1.0243 H            1    LIG   0.0000
  46 H            5.8137    -1.8918     2.9033 H            1    LIG   0.0000
  47 H            0.3645    -1.5273    -1.2518 H            1    LIG   0.0000
  48 H           -1.5803     1.7335    -1.0892 H            1    LIG   0.0000
@<TRIPOS>BOND
   1        1        2 1
   2        2        3 1
   3        3        4 1
   4        4        5 1
   5        5        6 1
   6        6        7 1
   7        7        8 2
   8        8        9 1
   9        9       10 ar
  10       10       11 1
  11       11       12 1
  12       12       13 1
  13       13       14 1
  14       14       15 1
  15       15       16 1
  16       16       17 1
  17       17       12 1
  18       10       18 ar
  19       18       19 ar
  20       19       20 ar
  21       20       21 ar
  22       21        9 ar
  23       21        6 1
  24        5       22 1
  25       22       23 1
  26       22       24 1
  27       24        3 1
  28       24       25 1
  29        3       26 1
  30       22       27 1
  31       24       28 1
  32        1       29 1
  33        2       30 1
  34        2       31 1
  35        5       32 1
  36        7       33 1
  37       11       34 1
  38       12       35 1
  39       13       36 1
  40       13       37 1
  41       14       38 1
  42       14       39 1
  43       15       40 1
  44       15       41 1
  45       16       42 1
  46       16       43 1
  47       17       44 1
  48       17       45 1
  49       19       46 1
  50       23       47 1
  51       25       48 1

@<TRIPOS>MOLECULE
CHEMBL85549
  48   51
SMALL
USER_CHARGES
@<TRIPOS>ATOM
   1 O1           1.3802     2.7683     2.2165 O.3          1    LIG   0.0000
   2 C2           1.7860     3.0786     0.8916 C.3          1    LIG   0.0000
   3 C3           1.5340     1.8820    -0.0083 C.3          1    LIG   0.0000
   4 O4           2.2497     0.7265     0.4097 O.3          1    LIG   0.0000
   5 C5           1.3140    -0.2104     0.9081 C.3          1    LIG   0.0000
   6 N6           1.8719    -1.5508     0.6824 N.pl3        1    LIG   0.0000
   7 C7           1.2833    -2.5188    -0.0755 C.2          1    LIG   0.0000
   8 N8           2.0678    -3.5725    -0.0504 N.2          1    LIG   0.0000
   9 C9           3.1609    -3.2983     0.7206 C.ar         1    LIG   0.0000
  10 C10          4.2761    -4.0552     1.0669 C.ar         1    LIG   0.0000
  11 N11          4.3846    -5.3635     0.5805 N.pl3        1    LIG   0.0000
  12 C12          5.5525    -6.1835     0.9317 C.3          1    LIG   0.0000
  13 C13          5.5061    -6.5643     2.4027 C.3          1    LIG   0.0000
  14 C14          6.7109    -7.4168     2.7670 C.3          1    LIG   0.0000
  15 C15          7.9875    -6.6476     2.4676 C.3          1    LIG   0.0000
  16 C16          8.0428    -6.2717     0.9955 C.3          1    LIG   0.0000
  17 C17          6.8346    -5.4253     0.6281 C.3          1    LIG   0.0000
  18 N18          5.2285    -3.5346     1.8555 N.ar         1    LIG   0.0000
  19 C19          5.1060    -2.2789     2.3123 C.ar         1    LIG   0.0000
  20 N20          4.0349    -1.5407     1.9775 N.ar         1    LIG   0.0000
  21 C21          3.0506    -2.0119     1.1919 C.ar         1    LIG   0.0000
  22 C22          0.1048    -0.0102     0.0162 C.3          1    LIG   0.0000
  23 O23          0.3461    -0.5282    -1.2881 O.3          1    LIG   0.0000
  24 C24          0.0699     1.5063     0.0014 C.3          1    LIG   0.0000
  25 O25         -0.6188     2.0044    -1.1365 O.3          1    LIG   0.0000
  26 H            1.8052     2.1135    -0.9426 H            1    LIG   0.0000
  27 H           -0.7236    -0.3966     0.4217 H            1    LIG   0.0000
  28 H           -0.3630     1.8450     0.8367 H            1    LIG   0.0000
  29 H            1.5462     3.5564     2.8092 H            1    LIG   0.0000
  30 H            2.7609     3.3011     0.8850 H            1    LIG   0.0000
  31 H            1.2629     3.8627     0.5577 H            1    LIG   0.0000
  32 H            1.0999    -0.0505     1.8718 H            1    LIG   0.0000
  33 H            0.4130    -2.4412    -0.5619 H            1    LIG   0.0000
  34 H            3.6675    -5.7401    -0.0059 H            1    LIG   0.0000
  35 H            5.5355    -7.0191     0.3826 H            1    LIG   0.0000
  36 H            4.6695    -7.0817     2.5830 H            1    LIG   0.0000
  37 H            5.5102    -5.7331     2.9586 H            1    LIG   0.0000
  38 H            6.6966    -8.2603     2.2300 H            1    LIG   0.0000
  39 H            6.6779    -7.6411     3.7409 H            1    LIG   0.0000
  40 H            8.7772    -7.2185     2.6924 H            1    LIG   0.0000
  41 H            8.0092    -5.8155     3.0218 H            1    LIG   0.0000
  42 H            8.8779    -5.7511     0.8180 H            1    LIG   0.0000
  43 H            8.0447    -7.1040     0.4413 H            1    LIG   0.0000
  44 H            6.8510    -4.5778     1.1587 H            1    LIG   0.0000
  45 H            6.8673    -5.2084    -0.3476 H            1    LIG   0.0000
  46 H            5.8137    -1.8918     2.9033 H            1    LIG   0.0000
  47 H            0.3645    -1.5273    -1.2518 H            1    LIG   0.0000
  48 H           -1.5803     1.7335    -1.0892 H            1    LIG   0.0000
@<TRIPOS>BOND
   1        1        2 1
   2        2        3 1
   3        3        4 1
   4        4        5 1
   5        5        6 1
   6        6        7 1
   7        7        8 2
   8        8        9 1
   9        9       10 ar
  10       10       11 1
  11       11       12 1
  12       12       13 1
  13       13       14 1
  14       14       15 1
  15       15       16 1
  16       16       17 1
  17       17       12 1
  18       10       18 ar
  19       18       19 ar
  20       19       20 ar
  21       20       21 ar
  22       21        9 ar
  23       21        6 1
  24        5       22 1
  25       22       23 1
  26       22       24 1
  27       24        3 1
  28       24       25 1
  29        3       26 1
  30       22       27 1
  31       24       28 1
  32        1       29 1
  33        2       30 1
  34        2       31 1
  35        5       32 1
  36        7       33 1
  37       11       34 1
  38       12       35 1
  39       13       36 1
  40       13       37 1
  41       14       38 1
  42       14       39 1
  43       15       40 1
  44       15       41 1
  45       16       42 1
  46       16       43 1
  47       17       44 1
  48       17       45 1
  49       19       46 1
  50       23       47 1
  51       25       48 1

@<TRIPOS>MOLECULE
CHEMBL85549
  48   51
SMALL
USER_CHARGES
@<TRIPOS>ATOM
   1 O1           1.3802     2.7683     2.2165 O.3          1    LIG   0.0000
   2 C2           1.7860     3.0786     0.8916 C.3          1    LIG   0.0000
   3 C3           1.5340     1.8820    -0.0083 C.3          1    LIG   0.0000
   4 O4           2.2497     0.7265     0.4097 O.3          1    LIG   0.0000
   5 C5           1.3140    -0.2104     0.9081 C.3          1    LIG   0.0000
   6 N6           1.8719    -1.5508     0.6824 N.pl3        1    LIG   0.0000
   7 C7           1.2833    -2.5188    -0.0755 C.2          1    LIG   0.0000
   8 N8           2.0678    -3.5725    -0.0504 N.2          1    LIG   0.0000
   9 C9           3.1609    -3.2983     0.7206 C.ar         1    LIG   0.0000
  10 C10          4.2761    -4.0552     1.0669 C.ar         1    LIG   0.0000
  11 N11          4.3846    -5.3635     0.5805 N.pl3        1    LIG   0.0000
  12 C12          5.5525    -6.1835     0.9317 C.3          1    LIG   0.0000
  13 C13          5.4448    -7.5569     0.2888 C.3          1    LIG   0.0000
  14 C14          6.6546    -8.4052     0.6469 C.3          1    LIG   0.0000
  15 C15          6.7502    -8.5427     2.1578 C.3          1    LIG   0.0000
  16 C16          6.8666    -7.1720     2.8050 C.3          1    LIG   0.0000
  17 C17          5.6610    -6.3200     2.4417 C.3          1    LIG   0.0000
  18 N18          5.2285    -3.5346     1.8555 N.ar         1    LIG   0.0000
  19 C19          5.1060    -2.2789     2.3123 C.ar         1    LIG   0.0000
  20 N20          4.0349    -1.5407     1.9775 N.ar         1    LIG   0.0000
  21 C21          3.0506    -2.0119     1.1919 C.ar         1    LIG   0.0000
  22 C22          0.1048    -0.0102     0.0162 C.3          1    LIG   0.0000
  23 O23          0.3461    -0.5282    -1.2881 O.3          1    LIG   0.0000
  24 C24          0.0699     1.5063     0.0014 C.3          1    LIG   0.0000
  25 O25         -0.6188     2.0044    -1.1365 O.3          1    LIG   0.0000
  26 H            1.8052     2.1135    -0.9426 H            1    LIG   0.0000
  27 H           -0.7236    -0.3966     0.4217 H            1    LIG   0.0000
  28 H           -0.3630     1.8450     0.8367 H            1    LIG   0.0000
  29 H            1.5462     3.5564     2.8092 H            1    LIG   0.0000
  30 H            2.7609     3.3011     0.8850 H            1    LIG   0.0000
  31 H            1.2629     3.8627     0.5577 H            1    LIG   0.0000
  32 H            1.0999    -0.0505     1.8718 H            1    LIG   0.0000
  33 H            0.4130    -2.4412    -0.5619 H            1    LIG   0.0000
  34 H            3.6675    -5.7401    -0.0059 H            1    LIG   0.0000
  35 H            6.3768    -5.7322     0.5896 H            1    LIG   0.0000
  36 H            5.3974    -7.4531    -0.7046 H            1    LIG   0.0000
  37 H            4.6158    -8.0101     0.6165 H            1    LIG   0.0000
  38 H            7.4834    -7.9667     0.2993 H            1    LIG   0.0000
  39 H            6.5593    -9.3115     0.2353 H            1    LIG   0.0000
  40 H            7.5568    -9.0867     2.3893 H            1    LIG   0.0000
  41 H            5.9298    -9.0008     2.5001 H            1    LIG   0.0000
  42 H            6.9099    -7.2776     3.7984 H            1    LIG   0.0000
  43 H            7.6991    -6.7226     2.4809 H            1    LIG   0.0000
  44 H            4.8317    -6.7531     2.7949 H            1    LIG   0.0000
  45 H            5.7627    -5.4125     2.8493 H            1    LIG   0.0000
  46 H            5.8137    -1.8918     2.9033 H            1    LIG   0.0000
  47 H            0.3645    -1.5273    -1.2518 H            1    LIG   0.0000
  48 H           -1.5803     1.7335    -1.0892 H            1    LIG   0.0000
@<TRIPOS>BOND
   1        1        2 1
   2        2        3 1
   3        3        4 1
   4        4        5 1
   5        5        6 1
   6        6        7 1
   7        7        8 2
   8        8        9 1
   9        9       10 ar
  10       10       11 1
  11       11       12 1
  12       12       13 1
  13       13       14 1
  14       14       15 1
  15       15       16 1
  16       16       17 1
  17       17       12 1
  18       10       18 ar
  19       18       19 ar
  20       19       20 ar
  21       20       21 ar
  22       21        9 ar
  23       21        6 1
  24        5       22 1
  25       22       23 1
  26       22       24 1
  27       24        3 1
  28       24       25 1
  29        3       26 1
  30       22       27 1
  31       24       28 1
  32        1       29 1
  33        2       30 1
  34        2       31 1
  35        5       32 1
  36        7       33 1
  37       11       34 1
  38       12       35 1
  39       13       36 1
  40       13       37 1
  41       14       38 1
  42       14       39 1
  43       15       40 1
  44       15       41 1
  45       16       42 1
  46       16       43 1
  47       17       44 1
  48       17       45 1
  49       19       46 1
  50       23       47 1
  51       25       48 1

@<TRIPOS>MOLECULE
CHEMBL85549
  48   51
SMALL
USER_CHARGES
@<TRIPOS>ATOM
   1 O1           1.3802     2.7683     2.2165 O.3          1    LIG   0.0000
   2 C2           1.7860     3.0786     0.8916 C.3          1    LIG   0.0000
   3 C3           1.5340     1.8820    -0.0083 C.3          1    LIG   0.0000
   4 O4           2.2497     0.7265     0.4097 O.3          1    LIG   0.0000
   5 C5           1.3140    -0.2104     0.9081 C.3          1    LIG   0.0000
   6 N6           1.8719    -1.5508     0.6824 N.pl3        1    LIG   0.0000
   7 C7           1.2833    -2.5188    -0.0755 C.2          1    LIG   0.0000
   8 N8           2.0678    -3.5725    -0.0504 N.2          1    LIG   0.0000
   9 C9           3.1609    -3.2983     0.7206 C.ar         1    LIG   0.0000
  10 C10          4.2761    -4.0552     1.0669 C.ar         1    LIG   0.0000
  11 N11          4.3846    -5.3635     0.5805 N.pl3        1    LIG   0.0000
  12 C12          5.5527    -6.1836     0.9317 C.3          1    LIG   0.0000
  13 C13          6.7954    -5.6506     0.2373 C.3          1    LIG   0.0000
  14 C14          8.0021    -6.4974     0.6081 C.3          1    LIG   0.0000
  15 C15          8.2089    -6.4876     2.1142 C.3          1    LIG   0.0000
  16 C16          6.9641    -7.0263     2.8013 C.3          1    LIG   0.0000
  17 C17          5.7523    -6.1829     2.4387 C.3          1    LIG   0.0000
  18 N18          5.2285    -3.5346     1.8555 N.ar         1    LIG   0.0000
  19 C19          5.1060    -2.2789     2.3123 C.ar         1    LIG   0.0000
  20 N20          4.0349    -1.5407     1.9775 N.ar         1    LIG   0.0000
  21 C21          3.0506    -2.0119     1.1919 C.ar         1    LIG   0.0000
  22 C22          0.1048    -0.0102     0.0162 C.3          1    LIG   0.0000
  23 O23          0.3461    -0.5282    -1.2881 O.3          1    LIG   0.0000
  24 C24          0.0699     1.5063     0.0014 C.3          1    LIG   0.0000
  25 O25         -0.6188     2.0044    -1.1365 O.3          1    LIG   0.0000
  26 H            1.8052     2.1135    -0.9426 H            1    LIG   0.0000
  27 H           -0.7236    -0.3966     0.4217 H            1    LIG   0.0000
  28 H           -0.3630     1.8450     0.8367 H            1    LIG   0.0000
  29 H            1.5462     3.5564     2.8092 H            1    LIG   0.0000
  30 H            2.7609     3.3011     0.8850 H            1    LIG   0.0000
  31 H            1.2629     3.8627     0.5577 H            1    LIG   0.0000
  32 H            1.0999    -0.0505     1.8718 H            1    LIG   0.0000
  33 H            0.4130    -2.4412    -0.5619 H            1    LIG   0.0000
  34 H            3.6675    -5.7401    -0.0059 H            1    LIG   0.0000
  35 H            5.3909    -7.1226     0.6280 H            1    LIG   0.0000
  36 H            6.9542    -4.7053     0.5222 H            1    LIG   0.0000
  37 H            6.6606    -5.6821    -0.7531 H            1    LIG   0.0000
  38 H            8.8159    -6.1264     0.1607 H            1    LIG   0.0000
  39 H            7.8525    -7.4374     0.3015 H            1    LIG   0.0000
  40 H            8.3799    -5.5512     2.4209 H            1    LIG   0.0000
  41 H            8.9931    -7.0629     2.3466 H            1    LIG   0.0000
  42 H            6.8085    -7.9698     2.5088 H            1    LIG   0.0000
  43 H            7.0980    -7.0022     3.7920 H            1    LIG   0.0000
  44 H            4.9397    -6.5628     2.8809 H            1    LIG   0.0000
  45 H            5.8952    -5.2446     2.7537 H            1    LIG   0.0000
  46 H            5.8137    -1.8918     2.9033 H            1    LIG   0.0000
  47 H            0.3645    -1.5273    -1.2518 H            1    LIG   0.0000
  48 H           -1.5803     1.7335    -1.0892 H            1    LIG   0.0000
@<TRIPOS>BOND
   1        1        2 1
   2        2        3 1
   3        3        4 1
   4        4        5 1
   5        5        6 1
   6        6        7 1
   7        7        8 2
   8        8        9 1
   9        9       10 ar
  10       10       11 1
  11       11       12 1
  12       12       13 1
  13       13       14 1
  14       14       15 1
  15       15       16 1
  16       16       17 1
  17       17       12 1
  18       10       18 ar
  19       18       19 ar
  20       19       20 ar
  21       20       21 ar
  22       21        9 ar
  23       21        6 1
  24        5       22 1
  25       22       23 1
  26       22       24 1
  27       24        3 1
  28       24       25 1
  29        3       26 1
  30       22       27 1
  31       24       28 1
  32        1       29 1
  33        2       30 1
  34        2       31 1
  35        5       32 1
  36        7       33 1
  37       11       34 1
  38       12       35 1
  39       13       36 1
  40       13       37 1
  41       14       38 1
  42       14       39 1
  43       15       40 1
  44       15       41 1
  45       16       42 1
  46       16       43 1
  47       17       44 1
  48       17       45 1
  49       19       46 1
  50       23       47 1
  51       25       48 1

@<TRIPOS>MOLECULE
CHEMBL85549
  48   51
SMALL
USER_CHARGES
@<TRIPOS>ATOM
   1 O1           1.3802     2.7683     2.2165 O.3          1    LIG   0.0000
   2 C2           1.7860     3.0786     0.8916 C.3          1    LIG   0.0000
   3 C3           1.5340     1.8820    -0.0083 C.3          1    LIG   0.0000
   4 O4           2.2497     0.7265     0.4097 O.3          1    LIG   0.0000
   5 C5           1.3140    -0.2104     0.9081 C.3          1    LIG   0.0000
   6 N6           1.8719    -1.5508     0.6824 N.pl3        1    LIG   0.0000
   7 C7           1.2833    -2.5188    -0.0755 C.2          1    LIG   0.0000
   8 N8           2.0678    -3.5725    -0.0504 N.2          1    LIG   0.0000
   9 C9           3.1609    -3.2983     0.7206 C.ar         1    LIG   0.0000
  10 C10          4.2761    -4.0552     1.0669 C.ar         1    LIG   0.0000
  11 N11          4.3846    -5.3635     0.5805 N.pl3        1    LIG   0.0000
  12 C12          5.5527    -6.1836     0.9317 C.3          1    LIG   0.0000
  13 C13          5.5037    -6.5629     2.4029 C.3          1    LIG   0.0000
  14 C14          6.7099    -7.4161     2.7606 C.3          1    LIG   0.0000
  15 C15          6.7379    -8.6725     1.9050 C.3          1    LIG   0.0000
  16 C16          6.7917    -8.2851     0.4357 C.3          1    LIG   0.0000
  17 C17          5.5867    -7.4341     0.0680 C.3          1    LIG   0.0000
  18 N18          5.2285    -3.5346     1.8555 N.ar         1    LIG   0.0000
  19 C19          5.1060    -2.2789     2.3123 C.ar         1    LIG   0.0000
  20 N20          4.0349    -1.5407     1.9775 N.ar         1    LIG   0.0000
  21 C21          3.0506    -2.0119     1.1919 C.ar         1    LIG   0.0000
  22 C22          0.1048    -0.0102     0.0162 C.3          1    LIG   0.0000
  23 O23          0.3461    -0.5282    -1.2881 O.3          1    LIG   0.0000
  24 C24          0.0699     1.5063     0.0014 C.3          1    LIG   0.0000
  25 O25         -0.6188     2.0044    -1.1365 O.3          1    LIG   0.0000
  26 H            1.8052     2.1135    -0.9426 H            1    LIG   0.0000
  27 H           -0.7236    -0.3966     0.4217 H            1    LIG   0.0000
  28 H           -0.3630     1.8450     0.8367 H            1    LIG   0.0000
  29 H            1.5462     3.5564     2.8092 H            1    LIG   0.0000
  30 H            2.7609     3.3011     0.8850 H            1    LIG   0.0000
  31 H            1.2629     3.8627     0.5577 H            1    LIG   0.0000
  32 H            1.0999    -0.0505     1.8718 H            1    LIG   0.0000
  33 H            0.4130    -2.4412    -0.5619 H            1    LIG   0.0000
  34 H            3.6675    -5.7401    -0.0059 H            1    LIG   0.0000
  35 H            6.3827    -5.6521     0.7629 H            1    LIG   0.0000
  36 H            4.6671    -7.0799     2.5839 H            1    LIG   0.0000
  37 H            5.5091    -5.7321     2.9594 H            1    LIG   0.0000
  38 H            6.6570    -7.6746     3.7252 H            1    LIG   0.0000
  39 H            7.5452    -6.8898     2.6019 H            1    LIG   0.0000
  40 H            5.9134    -9.2115     2.0775 H            1    LIG   0.0000
  41 H            7.5454    -9.2151     2.1363 H            1    LIG   0.0000
  42 H            7.6279    -7.7648     0.2624 H            1    LIG   0.0000
  43 H            6.7929    -9.1140    -0.1238 H            1    LIG   0.0000
  44 H            5.6484    -7.1705    -0.8947 H            1    LIG   0.0000
  45 H            4.7504    -7.9620     0.2160 H            1    LIG   0.0000
  46 H            5.8137    -1.8918     2.9033 H            1    LIG   0.0000
  47 H            0.3645    -1.5273    -1.2518 H            1    LIG   0.0000
  48 H           -1.5803     1.7335    -1.0892 H            1    LIG   0.0000
@<TRIPOS>BOND
   1        1        2 1
   2        2        3 1
   3        3        4 1
   4        4        5 1
   5        5        6 1
   6        6        7 1
   7        7        8 2
   8        8        9 1
   9        9       10 ar
  10       10       11 1
  11       11       12 1
  12       12       13 1
  13       13       14 1
  14       14       15 1
  15       15       16 1
  16       16       17 1
  17       17       12 1
  18       10       18 ar
  19       18       19 ar
  20       19       20 ar
  21       20       21 ar
  22       21        9 ar
  23       21        6 1
  24        5       22 1
  25       22       23 1
  26       22       24 1
  27       24        3 1
  28       24       25 1
  29        3       26 1
  30       22       27 1
  31       24       28 1
  32        1       29 1
  33        2       30 1
  34        2       31 1
  35        5       32 1
  36        7       33 1
  37       11       34 1
  38       12       35 1
  39       13       36 1
  40       13       37 1
  41       14       38 1
  42       14       39 1
  43       15       40 1
  44       15       41 1
  45       16       42 1
  46       16       43 1
  47       17       44 1
  48       17       45 1
  49       19       46 1
  50       23       47 1
  51       25       48 1

@<TRIPOS>MOLECULE
CHEMBL85549
  48   51
SMALL
USER_CHARGES
@<TRIPOS>ATOM
   1 O1           1.3802     2.7683     2.2165 O.3          1    LIG   0.0000
   2 C2           1.7860     3.0786     0.8916 C.3          1    LIG   0.0000
   3 C3           1.5340     1.8820    -0.0083 C.3          1    LIG   0.0000
   4 O4           2.2497     0.7265     0.4097 O.3          1    LIG   0.0000
   5 C5           1.3140    -0.2104     0.9081 C.3          1    LIG   0.0000
   6 N6           1.8719    -1.5508     0.6824 N.pl3        1    LIG   0.0000
   7 C7           1.2833    -2.5188    -0.0755 C.2          1    LIG   0.0000
   8 N8           2.0678    -3.5725    -0.0504 N.2          1    LIG   0.0000
   9 C9           3.1609    -3.2983     0.7206 C.ar         1    LIG   0.0000
  10 C10          4.2761    -4.0552     1.0669 C.ar         1    LIG   0.0000
  11 N11          4.3846    -5.3635     0.5805 N.pl3        1    LIG   0.0000
  12 C12          5.5527    -6.1836     0.9317 C.3          1    LIG   0.0000
  13 C13          5.4424    -7.5562     0.2877 C.3          1    LIG   0.0000
  14 C14          6.6551    -8.3988     0.6482 C.3          1    LIG   0.0000
  15 C15          7.9296    -7.7123     0.1836 C.3          1    LIG   0.0000
  16 C16          8.0352    -6.3427     0.8354 C.3          1    LIG   0.0000
  17 C17          6.8276    -5.4914     0.4773 C.3          1    LIG   0.0000
  18 N18          5.2285    -3.5346     1.8555 N.ar         1    LIG   0.0000
  19 C19          5.1060    -2.2789     2.3123 C.ar         1    LIG   0.0000
  20 N20          4.0349    -1.5407     1.9775 N.ar         1    LIG   0.0000
  21 C21          3.0506    -2.0119     1.1919 C.ar         1    LIG   0.0000
  22 C22          0.1048    -0.0102     0.0162 C.3          1    LIG   0.0000
  23 O23          0.3461    -0.5282    -1.2881 O.3          1    LIG   0.0000
  24 C24          0.0699     1.5063     0.0014 C.3          1    LIG   0.0000
  25 O25         -0.6188     2.0044    -1.1365 O.3          1    LIG   0.0000
  26 H            1.8052     2.1135    -0.9426 H            1    LIG   0.0000
  27 H           -0.7236    -0.3966     0.4217 H            1    LIG   0.0000
  28 H           -0.3630     1.8450     0.8367 H            1    LIG   0.0000
  29 H            1.5462     3.5564     2.8092 H            1    LIG   0.0000
  30 H            2.7609     3.3011     0.8850 H            1    LIG   0.0000
  31 H            1.2629     3.8627     0.5577 H            1    LIG   0.0000
  32 H            1.0999    -0.0505     1.8718 H            1    LIG   0.0000
  33 H            0.4130    -2.4412    -0.5619 H            1    LIG   0.0000
  34 H            3.6675    -5.7401    -0.0059 H            1    LIG   0.0000
  35 H            5.5822    -6.2946     1.9251 H            1    LIG   0.0000
  36 H            5.3944    -7.4529    -0.7058 H            1    LIG   0.0000
  37 H            4.6142    -8.0104     0.6160 H            1    LIG   0.0000
  38 H            6.5805    -9.2917     0.2042 H            1    LIG   0.0000
  39 H            6.6889    -8.5215     1.6400 H            1    LIG   0.0000
  40 H            7.9081    -7.6074    -0.8106 H            1    LIG   0.0000
  41 H            8.7203    -8.2667     0.4433 H            1    LIG   0.0000
  42 H            8.0782    -6.4527     1.8284 H            1    LIG   0.0000
  43 H            8.8659    -5.8880     0.5141 H            1    LIG   0.0000
  44 H            6.9020    -4.6031     0.9306 H            1    LIG   0.0000
  45 H            6.7976    -5.3586    -0.5133 H            1    LIG   0.0000
  46 H            5.8137    -1.8918     2.9033 H            1    LIG   0.0000
  47 H            0.3645    -1.5273    -1.2518 H            1    LIG   0.0000
  48 H           -1.5803     1.7335    -1.0892 H            1    LIG   0.0000
@<TRIPOS>BOND
   1        1        2 1
   2        2        3 1
   3        3        4 1
   4        4        5 1
   5        5        6 1
   6        6        7 1
   7        7        8 2
   8        8        9 1
   9        9       10 ar
  10       10       11 1
  11       11       12 1
  12       12       13 1
  13       13       14 1
  14       14       15 1
  15       15       16 1
  16       16       17 1
  17       17       12 1
  18       10       18 ar
  19       18       19 ar
  20       19       20 ar
  21       20       21 ar
  22       21        9 ar
  23       21        6 1
  24        5       22 1
  25       22       23 1
  26       22       24 1
  27       24        3 1
  28       24       25 1
  29        3       26 1
  30       22       27 1
  31       24       28 1
  32        1       29 1
  33        2       30 1
  34        2       31 1
  35        5       32 1
  36        7       33 1
  37       11       34 1
  38       12       35 1
  39       13       36 1
  40       13       37 1
  41       14       38 1
  42       14       39 1
  43       15       40 1
  44       15       41 1
  45       16       42 1
  46       16       43 1
  47       17       44 1
  48       17       45 1
  49       19       46 1
  50       23       47 1
  51       25       48 1

@<TRIPOS>MOLECULE
CHEMBL85549
  48   51
SMALL
USER_CHARGES
@<TRIPOS>ATOM
   1 O1           1.3802     2.7683     2.2165 O.3          1    LIG   0.0000
   2 C2           1.7860     3.0786     0.8916 C.3          1    LIG   0.0000
   3 C3           1.5340     1.8820    -0.0083 C.3          1    LIG   0.0000
   4 O4           2.2497     0.7265     0.4097 O.3          1    LIG   0.0000
   5 C5           1.3140    -0.2104     0.9081 C.3          1    LIG   0.0000
   6 N6           1.8719    -1.5508     0.6824 N.pl3        1    LIG   0.0000
   7 C7           3.0781    -1.8012     0.0991 C.2          1    LIG   0.0000
   8 N8           3.2409    -3.1046     0.0706 N.2          1    LIG   0.0000
   9 C9           2.1481    -3.7043     0.6282 C.ar         1    LIG   0.0000
  10 C10          1.8204    -5.0396     0.8428 C.ar         1    LIG   0.0000
  11 N11          2.7221    -6.0318     0.4398 N.pl3        1    LIG   0.0000
  12 C12          2.3995    -7.4493     0.6551 C.3          1    LIG   0.0000
  13 C13          2.4495    -7.7819     2.1377 C.3          1    LIG   0.0000
  14 C14          2.1112    -9.2468     2.3631 C.3          1    LIG   0.0000
  15 C15          3.0944   -10.1193     1.5996 C.3          1    LIG   0.0000
  16 C16          3.0421    -9.7962     0.1149 C.3          1    LIG   0.0000
  17 C17          3.3730    -8.3298    -0.1114 C.3          1    LIG   0.0000
  18 N18          0.6569    -5.3651     1.4262 N.ar         1    LIG   0.0000
  19 C19         -0.1946    -4.3996     1.8047 C.ar         1    LIG   0.0000
  20 N20          0.1178    -3.1085     1.6057 N.ar         1    LIG   0.0000
  21 C21          1.2685    -2.7255     1.0252 C.ar         1    LIG   0.0000
  22 C22          0.1048    -0.0102     0.0162 C.3          1    LIG   0.0000
  23 O23          0.3461    -0.5282    -1.2881 O.3          1    LIG   0.0000
  24 C24          0.0699     1.5063     0.0014 C.3          1    LIG   0.0000
  25 O25         -0.6188     2.0044    -1.1365 O.3          1    LIG   0.0000
  26 H            1.8052     2.1135    -0.9426 H            1    LIG   0.0000
  27 H           -0.7236    -0.3966     0.4217 H            1    LIG   0.0000
  28 H           -0.3630     1.8450     0.8367 H            1    LIG   0.0000
  29 H            1.5462     3.5564     2.8092 H            1    LIG   0.0000
  30 H            2.7609     3.3011     0.8850 H            1    LIG   0.0000
  31 H            1.2629     3.8627     0.5577 H            1    LIG   0.0000
  32 H            1.0999    -0.0505     1.8718 H            1    LIG   0.0000
  33 H            3.7219    -1.1174    -0.2445 H            1    LIG   0.0000
  34 H            3.5858    -5.7760     0.0054 H            1    LIG   0.0000
  35 H            1.4744    -7.6233     0.3177 H            1    LIG   0.0000
  36 H            1.7885    -7.2120     2.6258 H            1    LIG   0.0000
  37 H            3.3689    -7.5986     2.4858 H            1    LIG   0.0000
  38 H            1.1830    -9.4280     2.0380 H            1    LIG   0.0000
  39 H            2.1692    -9.4555     3.3394 H            1    LIG   0.0000
  40 H            2.8577   -11.0811     1.7367 H            1    LIG   0.0000
  41 H            4.0191    -9.9516     1.9415 H            1    LIG   0.0000
  42 H            3.7064   -10.3642    -0.3710 H            1    LIG   0.0000
  43 H            2.1239    -9.9858    -0.2329 H            1    LIG   0.0000
  44 H            4.3037    -8.1481     0.2062 H            1    LIG   0.0000
  45 H            3.3077    -8.1230    -1.0876 H            1    LIG   0.0000
  46 H           -1.0637    -4.6419     2.2360 H            1    LIG   0.0000
  47 H            0.3645    -1.5273    -1.2518 H            1    LIG   0.0000
  48 H           -1.5803     1.7335    -1.0892 H            1    LIG   0.0000
@<TRIPOS>BOND
   1        1        2 1
   2        2        3 1
   3        3        4 1
   4        4        5 1
   5        5        6 1
   6        6        7 1
   7        7        8 2
   8        8        9 1
   9        9       10 ar
  10       10       11 1
  11       11       12 1
  12       12       13 1
  13       13       14 1
  14       14       15 1
  15       15       16 1
  16       16       17 1
  17       17       12 1
  18       10       18 ar
  19       18       19 ar
  20       19       20 ar
  21       20       21 ar
  22       21        9 ar
  23       21        6 1
  24        5       22 1
  25       22       23 1
  26       22       24 1
  27       24        3 1
  28       24       25 1
  29        3       26 1
  30       22       27 1
  31       24       28 1
  32        1       29 1
  33        2       30 1
  34        2       31 1
  35        5       32 1
  36        7       33 1
  37       11       34 1
  38       12       35 1
  39       13       36 1
  40       13       37 1
  41       14       38 1
  42       14       39 1
  43       15       40 1
  44       15       41 1
  45       16       42 1
  46       16       43 1
  47       17       44 1
  48       17       45 1
  49       19       46 1
  50       23       47 1
  51       25       48 1

@<TRIPOS>MOLECULE
CHEMBL85549
  48   51
SMALL
USER_CHARGES
@<TRIPOS>ATOM
   1 O1           1.3802     2.7683     2.2165 O.3          1    LIG   0.0000
   2 C2           1.7860     3.0786     0.8916 C.3          1    LIG   0.0000
   3 C3           1.5340     1.8820    -0.0083 C.3          1    LIG   0.0000
   4 O4           2.2497     0.7265     0.4097 O.3          1    LIG   0.0000
   5 C5           1.3140    -0.2104     0.9081 C.3          1    LIG   0.0000
   6 N6           1.8719    -1.5508     0.6824 N.pl3        1    LIG   0.0000
   7 C7           3.0781    -1.8012     0.0991 C.2          1    LIG   0.0000
   8 N8           3.2409    -3.1046     0.0706 N.2          1    LIG   0.0000
   9 C9           2.1481    -3.7043     0.6282 C.ar         1    LIG   0.0000
  10 C10          1.8204    -5.0396     0.8428 C.ar         1    LIG   0.0000
  11 N11          2.7221    -6.0318     0.4398 N.pl3        1    LIG   0.0000
  12 C12          2.3995    -7.4493     0.6551 C.3          1    LIG   0.0000
  13 C13          1.2690    -7.8784    -0.2662 C.3          1    LIG   0.0000
  14 C14          0.9370    -9.3459    -0.0486 C.3          1    LIG   0.0000
  15 C15          0.5401    -9.5679     1.4020 C.3          1    LIG   0.0000
  16 C16          1.6710    -9.1480     2.3274 C.3          1    LIG   0.0000
  17 C17          2.0091    -7.6825     2.1056 C.3          1    LIG   0.0000
  18 N18          0.6569    -5.3651     1.4262 N.ar         1    LIG   0.0000
  19 C19         -0.1946    -4.3996     1.8047 C.ar         1    LIG   0.0000
  20 N20          0.1178    -3.1085     1.6057 N.ar         1    LIG   0.0000
  21 C21          1.2685    -2.7255     1.0252 C.ar         1    LIG   0.0000
  22 C22          0.1048    -0.0102     0.0162 C.3          1    LIG   0.0000
  23 O23          0.3461    -0.5282    -1.2881 O.3          1    LIG   0.0000
  24 C24          0.0699     1.5063     0.0014 C.3          1    LIG   0.0000
  25 O25         -0.6188     2.0044    -1.1365 O.3          1    LIG   0.0000
  26 H            1.8052     2.1135    -0.9426 H            1    LIG   0.0000
  27 H           -0.7236    -0.3966     0.4217 H            1    LIG   0.0000
  28 H           -0.3630     1.8450     0.8367 H            1    LIG   0.0000
  29 H            1.5462     3.5564     2.8092 H            1    LIG   0.0000
  30 H            2.7609     3.3011     0.8850 H            1    LIG   0.0000
  31 H            1.2629     3.8627     0.5577 H            1    LIG   0.0000
  32 H            1.0999    -0.0505     1.8718 H            1    LIG   0.0000
  33 H            3.7219    -1.1174    -0.2445 H            1    LIG   0.0000
  34 H            3.5858    -5.7760     0.0054 H            1    LIG   0.0000
  35 H            3.2092    -7.9984     0.4479 H            1    LIG   0.0000
  36 H            1.5482    -7.7410    -1.2166 H            1    LIG   0.0000
  37 H            0.4587    -7.3250    -0.0735 H            1    LIG   0.0000
  38 H            1.7383    -9.9041    -0.2638 H            1    LIG   0.0000
  39 H            0.1784    -9.6077    -0.6452 H            1    LIG   0.0000
  40 H            0.3395   -10.5371     1.5447 H            1    LIG   0.0000
  41 H           -0.2740    -9.0251     1.6083 H            1    LIG   0.0000
  42 H            1.3886    -9.2824     3.2772 H            1    LIG   0.0000
  43 H            2.4786    -9.7064     2.1376 H            1    LIG   0.0000
  44 H            1.2112    -7.1220     2.3274 H            1    LIG   0.0000
  45 H            2.7721    -7.4259     2.6987 H            1    LIG   0.0000
  46 H           -1.0637    -4.6419     2.2360 H            1    LIG   0.0000
  47 H            0.3645    -1.5273    -1.2518 H            1    LIG   0.0000
  48 H           -1.5803     1.7335    -1.0892 H            1    LIG   0.0000
@<TRIPOS>BOND
   1        1        2 1
   2        2        3 1
   3        3        4 1
   4        4        5 1
   5        5        6 1
   6        6        7 1
   7        7        8 2
   8        8        9 1
   9        9       10 ar
  10       10       11 1
  11       11       12 1
  12       12       13 1
  13       13       14 1
  14       14       15 1
  15       15       16 1
  16       16       17 1
  17       17       12 1
  18       10       18 ar
  19       18       19 ar
  20       19       20 ar
  21       20       21 ar
  22       21        9 ar
  23       21        6 1
  24        5       22 1
  25       22       23 1
  26       22       24 1
  27       24        3 1
  28       24       25 1
  29        3       26 1
  30       22       27 1
  31       24       28 1
  32        1       29 1
  33        2       30 1
  34        2       31 1
  35        5       32 1
  36        7       33 1
  37       11       34 1
  38       12       35 1
  39       13       36 1
  40       13       37 1
  41       14       38 1
  42       14       39 1
  43       15       40 1
  44       15       41 1
  45       16       42 1
  46       16       43 1
  47       17       44 1
  48       17       45 1
  49       19       46 1
  50       23       47 1
  51       25       48 1

@<TRIPOS>MOLECULE
CHEMBL85549
  48   51
SMALL
USER_CHARGES
@<TRIPOS>ATOM
   1 O1           1.3802     2.7683     2.2165 O.3          1    LIG   0.0000
   2 C2           1.7860     3.0786     0.8916 C.3          1    LIG   0.0000
   3 C3           1.5340     1.8820    -0.0083 C.3          1    LIG   0.0000
   4 O4           2.2497     0.7265     0.4097 O.3          1    LIG   0.0000
   5 C5           1.3140    -0.2104     0.9081 C.3          1    LIG   0.0000
   6 N6           1.8719    -1.5508     0.6824 N.pl3        1    LIG   0.0000
   7 C7           3.0781    -1.8012     0.0991 C.2          1    LIG   0.0000
   8 N8           3.2409    -3.1046     0.0706 N.2          1    LIG   0.0000
   9 C9           2.1481    -3.7043     0.6282 C.ar         1    LIG   0.0000
  10 C10          1.8204    -5.0396     0.8428 C.ar         1    LIG   0.0000
  11 N11          2.7221    -6.0318     0.4398 N.pl3        1    LIG   0.0000
  12 C12          2.3995    -7.4493     0.6551 C.3          1    LIG   0.0000
  13 C13          3.5251    -8.3305     0.1378 C.3          1    LIG   0.0000
  14 C14          3.1955    -9.7973     0.3641 C.3          1    LIG   0.0000
  15 C15          1.8957   -10.1418    -0.3449 C.3          1    LIG   0.0000
  16 C16          0.7648    -9.2688     0.1752 C.3          1    LIG   0.0000
  17 C17          1.0964    -7.8014    -0.0438 C.3          1    LIG   0.0000
  18 N18          0.6569    -5.3651     1.4262 N.ar         1    LIG   0.0000
  19 C19         -0.1946    -4.3996     1.8047 C.ar         1    LIG   0.0000
  20 N20          0.1178    -3.1085     1.6057 N.ar         1    LIG   0.0000
  21 C21          1.2685    -2.7255     1.0252 C.ar         1    LIG   0.0000
  22 C22          0.1048    -0.0102     0.0162 C.3          1    LIG   0.0000
  23 O23          0.3461    -0.5282    -1.2881 O.3          1    LIG   0.0000
  24 C24          0.0699     1.5063     0.0014 C.3          1    LIG   0.0000
  25 O25         -0.6188     2.0044    -1.1365 O.3          1    LIG   0.0000
  26 H            1.8052     2.1135    -0.9426 H            1    LIG   0.0000
  27 H           -0.7236    -0.3966     0.4217 H            1    LIG   0.0000
  28 H           -0.3630     1.8450     0.8367 H            1    LIG   0.0000
  29 H            1.5462     3.5564     2.8092 H            1    LIG   0.0000
  30 H            2.7609     3.3011     0.8850 H            1    LIG   0.0000
  31 H            1.2629     3.8627     0.5577 H            1    LIG   0.0000
  32 H            1.0999    -0.0505     1.8718 H            1    LIG   0.0000
  33 H            3.7219    -1.1174    -0.2445 H            1    LIG   0.0000
  34 H            3.5858    -5.7760     0.0054 H            1    LIG   0.0000
  35 H            2.2914    -7.6089     1.6364 H            1    LIG   0.0000
  36 H            4.3702    -8.1040     0.6220 H            1    LIG   0.0000
  37 H            3.6479    -8.1675    -0.8412 H            1    LIG   0.0000
  38 H            3.0959    -9.9688     1.3442 H            1    LIG   0.0000
  39 H            3.9341   -10.3646    -0.0002 H            1    LIG   0.0000
  40 H            1.6739   -11.1027    -0.1790 H            1    LIG   0.0000
  41 H            2.0051    -9.9898    -1.3272 H            1    LIG   0.0000
  42 H           -0.0784    -9.4940    -0.3129 H            1    LIG   0.0000
  43 H            0.6393    -9.4374     1.1528 H            1    LIG   0.0000
  44 H            1.1891    -7.6261    -1.0240 H            1    LIG   0.0000
  45 H            0.3591    -7.2369     0.3275 H            1    LIG   0.0000
  46 H           -1.0637    -4.6419     2.2360 H            1    LIG   0.0000
  47 H            0.3645    -1.5273    -1.2518 H            1    LIG   0.0000
  48 H           -1.5803     1.7335    -1.0892 H            1    LIG   0.0000
@<TRIPOS>BOND
   1        1        2 1
   2        2        3 1
   3        3        4 1
   4        4        5 1
   5        5        6 1
   6        6        7 1
   7        7        8 2
   8        8        9 1
   9        9       10 ar
  10       10       11 1
  11       11       12 1
  12       12       13 1
  13       13       14 1
  14       14       15 1
  15       15       16 1
  16       16       17 1
  17       17       12 1
  18       10       18 ar
  19       18       19 ar
  20       19       20 ar
  21       20       21 ar
  22       21        9 ar
  23       21        6 1
  24        5       22 1
  25       22       23 1
  26       22       24 1
  27       24        3 1
  28       24       25 1
  29        3       26 1
  30       22       27 1
  31       24       28 1
  32        1       29 1
  33        2       30 1
  34        2       31 1
  35        5       32 1
  36        7       33 1
  37       11       34 1
  38       12       35 1
  39       13       36 1
  40       13       37 1
  41       14       38 1
  42       14       39 1
  43       15       40 1
  44       15       41 1
  45       16       42 1
  46       16       43 1
  47       17       44 1
  48       17       45 1
  49       19       46 1
  50       23       47 1
  51       25       48 1

@<TRIPOS>MOLECULE
CHEMBL85549
  48   51
SMALL
USER_CHARGES
@<TRIPOS>ATOM
   1 O1           1.3802     2.7683     2.2165 O.3          1    LIG   0.0000
   2 C2           1.7860     3.0786     0.8916 C.3          1    LIG   0.0000
   3 C3           1.5340     1.8820    -0.0083 C.3          1    LIG   0.0000
   4 O4           2.2497     0.7265     0.4097 O.3          1    LIG   0.0000
   5 C5           1.3140    -0.2104     0.9081 C.3          1    LIG   0.0000
   6 N6           1.8719    -1.5508     0.6824 N.pl3        1    LIG   0.0000
   7 C7           3.0781    -1.8012     0.0991 C.2          1    LIG   0.0000
   8 N8           3.2409    -3.1046     0.0706 N.2          1    LIG   0.0000
   9 C9           2.1481    -3.7043     0.6282 C.ar         1    LIG   0.0000
  10 C10          1.8204    -5.0396     0.8428 C.ar         1    LIG   0.0000
  11 N11          2.7221    -6.0318     0.4398 N.pl3        1    LIG   0.0000
  12 C12          2.3995    -7.4495     0.6552 C.3          1    LIG   0.0000
  13 C13          1.2689    -7.8758    -0.2672 C.3          1    LIG   0.0000
  14 C14          0.9426    -9.3439    -0.0459 C.3          1    LIG   0.0000
  15 C15          2.1711   -10.2009    -0.3060 C.3          1    LIG   0.0000
  16 C16          3.2955    -9.7719     0.6232 C.3          1    LIG   0.0000
  17 C17          3.6312    -8.3050     0.4063 C.3          1    LIG   0.0000
  18 N18          0.6569    -5.3651     1.4262 N.ar         1    LIG   0.0000
  19 C19         -0.1946    -4.3996     1.8047 C.ar         1    LIG   0.0000
  20 N20          0.1178    -3.1085     1.6057 N.ar         1    LIG   0.0000
  21 C21          1.2685    -2.7255     1.0252 C.ar         1    LIG   0.0000
  22 C22          0.1048    -0.0102     0.0162 C.3          1    LIG   0.0000
  23 O23          0.3461    -0.5282    -1.2881 O.3          1    LIG   0.0000
  24 C24          0.0699     1.5063     0.0014 C.3          1    LIG   0.0000
  25 O25         -0.6188     2.0044    -1.1365 O.3          1    LIG   0.0000
  26 H            1.8052     2.1135    -0.9426 H            1    LIG   0.0000
  27 H           -0.7236    -0.3966     0.4217 H            1    LIG   0.0000
  28 H           -0.3630     1.8450     0.8367 H            1    LIG   0.0000
  29 H            1.5462     3.5564     2.8092 H            1    LIG   0.0000
  30 H            2.7609     3.3011     0.8850 H            1    LIG   0.0000
  31 H            1.2629     3.8627     0.5577 H            1    LIG   0.0000
  32 H            1.0999    -0.0505     1.8718 H            1    LIG   0.0000
  33 H            3.7219    -1.1174    -0.2445 H            1    LIG   0.0000
  34 H            3.5858    -5.7760     0.0054 H            1    LIG   0.0000
  35 H            2.1066    -7.5734     1.6033 H            1    LIG   0.0000
  36 H            1.5473    -7.7382    -1.2178 H            1    LIG   0.0000
  37 H            0.4579    -7.3236    -0.0741 H            1    LIG   0.0000
  38 H            0.2111    -9.6173    -0.6706 H            1    LIG   0.0000
  39 H            0.6415    -9.4764     0.8984 H            1    LIG   0.0000
  40 H            2.4621   -10.0867    -1.2559 H            1    LIG   0.0000
  41 H            1.9488   -11.1614    -0.1387 H            1    LIG   0.0000
  42 H            3.0092    -9.9077     1.5717 H            1    LIG   0.0000
  43 H            4.1066   -10.3265     0.4372 H            1    LIG   0.0000
  44 H            4.3565    -8.0338     1.0390 H            1    LIG   0.0000
  45 H            3.9426    -8.1719    -0.5346 H            1    LIG   0.0000
  46 H           -1.0637    -4.6419     2.2360 H            1    LIG   0.0000
  47 H            0.3645    -1.5273    -1.2518 H            1    LIG   0.0000
  48 H           -1.5803     1.7335    -1.0892 H            1    LIG   0.0000
@<TRIPOS>BOND
   1        1        2 1
   2        2        3 1
   3        3        4 1
   4        4        5 1
   5        5        6 1
   6        6        7 1
   7        7        8 2
   8        8        9 1
   9        9       10 ar
  10       10       11 1
  11       11       12 1
  12       12       13 1
  13       13       14 1
  14       14       15 1
  15       15       16 1
  16       16       17 1
  17       17       12 1
  18       10       18 ar
  19       18       19 ar
  20       19       20 ar
  21       20       21 ar
  22       21        9 ar
  23       21        6 1
  24        5       22 1
  25       22       23 1
  26       22       24 1
  27       24        3 1
  28       24       25 1
  29        3       26 1
  30       22       27 1
  31       24       28 1
  32        1       29 1
  33        2       30 1
  34        2       31 1
  35        5       32 1
  36        7       33 1
  37       11       34 1
  38       12       35 1
  39       13       36 1
  40       13       37 1
  41       14       38 1
  42       14       39 1
  43       15       40 1
  44       15       41 1
  45       16       42 1
  46       16       43 1
  47       17       44 1
  48       17       45 1
  49       19       46 1
  50       23       47 1
  51       25       48 1

@<TRIPOS>MOLECULE
CHEMBL85549
  48   51
SMALL
USER_CHARGES
@<TRIPOS>ATOM
   1 O1           1.3802     2.7683     2.2165 O.3          1    LIG   0.0000
   2 C2           1.7860     3.0786     0.8916 C.3          1    LIG   0.0000
   3 C3           1.5340     1.8820    -0.0083 C.3          1    LIG   0.0000
   4 O4           2.2497     0.7265     0.4097 O.3          1    LIG   0.0000
   5 C5           1.3140    -0.2104     0.9081 C.3          1    LIG   0.0000
   6 N6           1.8719    -1.5508     0.6824 N.pl3        1    LIG   0.0000
   7 C7           3.0781    -1.8012     0.0991 C.2          1    LIG   0.0000
   8 N8           3.2409    -3.1046     0.0706 N.2          1    LIG   0.0000
   9 C9           2.1481    -3.7043     0.6282 C.ar         1    LIG   0.0000
  10 C10          1.8204    -5.0396     0.8428 C.ar         1    LIG   0.0000
  11 N11          2.7221    -6.0318     0.4398 N.pl3        1    LIG   0.0000
  12 C12          2.3995    -7.4495     0.6552 C.3          1    LIG   0.0000
  13 C13          3.5264    -8.3282     0.1370 C.3          1    LIG   0.0000
  14 C14          3.1918    -9.7930     0.3673 C.3          1    LIG   0.0000
  15 C15          2.9724   -10.0559     1.8486 C.3          1    LIG   0.0000
  16 C16          1.8411    -9.1773     2.3583 C.3          1    LIG   0.0000
  17 C17          2.1689    -7.7095     2.1351 C.3          1    LIG   0.0000
  18 N18          0.6569    -5.3651     1.4262 N.ar         1    LIG   0.0000
  19 C19         -0.1946    -4.3996     1.8047 C.ar         1    LIG   0.0000
  20 N20          0.1178    -3.1085     1.6057 N.ar         1    LIG   0.0000
  21 C21          1.2685    -2.7255     1.0252 C.ar         1    LIG   0.0000
  22 C22          0.1048    -0.0102     0.0162 C.3          1    LIG   0.0000
  23 O23          0.3461    -0.5282    -1.2881 O.3          1    LIG   0.0000
  24 C24          0.0699     1.5063     0.0014 C.3          1    LIG   0.0000
  25 O25         -0.6188     2.0044    -1.1365 O.3          1    LIG   0.0000
  26 H            1.8052     2.1135    -0.9426 H            1    LIG   0.0000
  27 H           -0.7236    -0.3966     0.4217 H            1    LIG   0.0000
  28 H           -0.3630     1.8450     0.8367 H            1    LIG   0.0000
  29 H            1.5462     3.5564     2.8092 H            1    LIG   0.0000
  30 H            2.7609     3.3011     0.8850 H            1    LIG   0.0000
  31 H            1.2629     3.8627     0.5577 H            1    LIG   0.0000
  32 H            1.0999    -0.0505     1.8718 H            1    LIG   0.0000
  33 H            3.7219    -1.1174    -0.2445 H            1    LIG   0.0000
  34 H            3.5858    -5.7760     0.0054 H            1    LIG   0.0000
  35 H            1.5623    -7.6696     0.1545 H            1    LIG   0.0000
  36 H            4.3720    -8.1018     0.6205 H            1    LIG   0.0000
  37 H            3.6489    -8.1666    -0.8422 H            1    LIG   0.0000
  38 H            3.9477   -10.3598     0.0398 H            1    LIG   0.0000
  39 H            2.3592   -10.0245    -0.1359 H            1    LIG   0.0000
  40 H            3.8105    -9.8454     2.3520 H            1    LIG   0.0000
  41 H            2.7345   -11.0177     1.9846 H            1    LIG   0.0000
  42 H            1.0000    -9.4054     1.8678 H            1    LIG   0.0000
  43 H            1.7116    -9.3410     3.3362 H            1    LIG   0.0000
  44 H            1.4066    -7.1472     2.4556 H            1    LIG   0.0000
  45 H            2.9954    -7.4731     2.6459 H            1    LIG   0.0000
  46 H           -1.0637    -4.6419     2.2360 H            1    LIG   0.0000
  47 H            0.3645    -1.5273    -1.2518 H            1    LIG   0.0000
  48 H           -1.5803     1.7335    -1.0892 H            1    LIG   0.0000
@<TRIPOS>BOND
   1        1        2 1
   2        2        3 1
   3        3        4 1
   4        4        5 1
   5        5        6 1
   6        6        7 1
   7        7        8 2
   8        8        9 1
   9        9       10 ar
  10       10       11 1
  11       11       12 1
  12       12       13 1
  13       13       14 1
  14       14       15 1
  15       15       16 1
  16       16       17 1
  17       17       12 1
  18       10       18 ar
  19       18       19 ar
  20       19       20 ar
  21       20       21 ar
  22       21        9 ar
  23       21        6 1
  24        5       22 1
  25       22       23 1
  26       22       24 1
  27       24        3 1
  28       24       25 1
  29        3       26 1
  30       22       27 1
  31       24       28 1
  32        1       29 1
  33        2       30 1
  34        2       31 1
  35        5       32 1
  36        7       33 1
  37       11       34 1
  38       12       35 1
  39       13       36 1
  40       13       37 1
  41       14       38 1
  42       14       39 1
  43       15       40 1
  44       15       41 1
  45       16       42 1
  46       16       43 1
  47       17       44 1
  48       17       45 1
  49       19       46 1
  50       23       47 1
  51       25       48 1

@<TRIPOS>MOLECULE
CHEMBL85549
  48   51
SMALL
USER_CHARGES
@<TRIPOS>ATOM
   1 O1           1.3802     2.7683     2.2165 O.3          1    LIG   0.0000
   2 C2           1.7860     3.0786     0.8916 C.3          1    LIG   0.0000
   3 C3           1.5340     1.8820    -0.0083 C.3          1    LIG   0.0000
   4 O4           2.2497     0.7265     0.4097 O.3          1    LIG   0.0000
   5 C5           1.3140    -0.2104     0.9081 C.3          1    LIG   0.0000
   6 N6           1.8719    -1.5508     0.6824 N.pl3        1    LIG   0.0000
   7 C7           2.7092    -1.8806    -0.3414 C.2          1    LIG   0.0000
   8 N8           3.0011    -3.1557    -0.2187 N.2          1    LIG   0.0000
   9 C9           2.3575    -3.6588     0.8756 C.ar         1    LIG   0.0000
  10 C10          2.3281    -4.9293     1.4425 C.ar         1    LIG   0.0000
  11 N11          3.0680    -5.9559     0.8436 N.pl3        1    LIG   0.0000
  12 C12          3.0536    -7.3065     1.4231 C.3          1    LIG   0.0000
  13 C13          3.8040    -7.3180     2.7450 C.3          1    LIG   0.0000
  14 C14          3.7814    -8.7149     3.3439 C.3          1    LIG   0.0000
  15 C15          2.3474    -9.1709     3.5612 C.3          1    LIG   0.0000
  16 C16          1.6049    -9.1614     2.2344 C.3          1    LIG   0.0000
  17 C17          1.6195    -7.7667     1.6294 C.3          1    LIG   0.0000
  18 N18          1.5997    -5.1611     2.5451 N.ar         1    LIG   0.0000
  19 C19          0.8965    -4.1643     3.1040 C.ar         1    LIG   0.0000
  20 N20          0.9248    -2.9341     2.5653 N.ar         1    LIG   0.0000
  21 C21          1.6362    -2.6459     1.4613 C.ar         1    LIG   0.0000
  22 C22          0.1048    -0.0102     0.0162 C.3          1    LIG   0.0000
  23 O23          0.3461    -0.5282    -1.2881 O.3          1    LIG   0.0000
  24 C24          0.0699     1.5063     0.0014 C.3          1    LIG   0.0000
  25 O25         -0.6188     2.0044    -1.1365 O.3          1    LIG   0.0000
  26 H            1.8052     2.1135    -0.9426 H            1    LIG   0.0000
  27 H           -0.7236    -0.3966     0.4217 H            1    LIG   0.0000
  28 H           -0.3630     1.8450     0.8367 H            1    LIG   0.0000
  29 H            1.5462     3.5564     2.8092 H            1    LIG   0.0000
  30 H            2.7609     3.3011     0.8850 H            1    LIG   0.0000
  31 H            1.2629     3.8627     0.5577 H            1    LIG   0.0000
  32 H            1.0999    -0.0505     1.8718 H            1    LIG   0.0000
  33 H            3.0409    -1.2643    -1.0557 H            1    LIG   0.0000
  34 H            3.6064    -5.7701     0.0216 H            1    LIG   0.0000
  35 H            3.5060    -7.9343     0.7897 H            1    LIG   0.0000
  36 H            3.3682    -6.6789     3.3787 H            1    LIG   0.0000
  37 H            4.7519    -7.0395     2.5901 H            1    LIG   0.0000
  38 H            4.2614    -8.7058     4.2211 H            1    LIG   0.0000
  39 H            4.2385    -9.3490     2.7203 H            1    LIG   0.0000
  40 H            1.8939    -8.5506     4.2012 H            1    LIG   0.0000
  41 H            2.3458   -10.0975     3.9373 H            1    LIG   0.0000
  42 H            2.0483    -9.7987     1.6041 H            1    LIG   0.0000
  43 H            0.6580    -9.4457     2.3846 H            1    LIG   0.0000
  44 H            1.1465    -7.7825     0.7485 H            1    LIG   0.0000
  45 H            1.1536    -7.1328     2.2467 H            1    LIG   0.0000
  46 H            0.3503    -4.3375     3.9235 H            1    LIG   0.0000
  47 H            0.3645    -1.5273    -1.2518 H            1    LIG   0.0000
  48 H           -1.5803     1.7335    -1.0892 H            1    LIG   0.0000
@<TRIPOS>BOND
   1        1        2 1
   2        2        3 1
   3        3        4 1
   4        4        5 1
   5        5        6 1
   6        6        7 1
   7        7        8 2
   8        8        9 1
   9        9       10 ar
  10       10       11 1
  11       11       12 1
  12       12       13 1
  13       13       14 1
  14       14       15 1
  15       15       16 1
  16       16       17 1
  17       17       12 1
  18       10       18 ar
  19       18       19 ar
  20       19       20 ar
  21       20       21 ar
  22       21        9 ar
  23       21        6 1
  24        5       22 1
  25       22       23 1
  26       22       24 1
  27       24        3 1
  28       24       25 1
  29        3       26 1
  30       22       27 1
  31       24       28 1
  32        1       29 1
  33        2       30 1
  34        2       31 1
  35        5       32 1
  36        7       33 1
  37       11       34 1
  38       12       35 1
  39       13       36 1
  40       13       37 1
  41       14       38 1
  42       14       39 1
  43       15       40 1
  44       15       41 1
  45       16       42 1
  46       16       43 1
  47       17       44 1
  48       17       45 1
  49       19       46 1
  50       23       47 1
  51       25       48 1

@<TRIPOS>MOLECULE
CHEMBL85549
  48   51
SMALL
USER_CHARGES
@<TRIPOS>ATOM
   1 O1           1.3802     2.7683     2.2165 O.3          1    LIG   0.0000
   2 C2           1.7860     3.0786     0.8916 C.3          1    LIG   0.0000
   3 C3           1.5340     1.8820    -0.0083 C.3          1    LIG   0.0000
   4 O4           2.2497     0.7265     0.4097 O.3          1    LIG   0.0000
   5 C5           1.3140    -0.2104     0.9081 C.3          1    LIG   0.0000
   6 N6           1.8719    -1.5508     0.6824 N.pl3        1    LIG   0.0000
   7 C7           2.1949    -2.0613    -0.5395 C.2          1    LIG   0.0000
   8 N8           2.6654    -3.2733    -0.3501 N.2          1    LIG   0.0000
   9 C9           2.6482    -3.5564     0.9856 C.ar         1    LIG   0.0000
  10 C10          3.0329    -4.6809     1.7094 C.ar         1    LIG   0.0000
  11 N11          3.5460    -5.7868     1.0212 N.pl3        1    LIG   0.0000
  12 C12          3.9593    -6.9865     1.7625 C.3          1    LIG   0.0000
  13 C13          5.2179    -6.7018     2.5663 C.3          1    LIG   0.0000
  14 C14          5.6444    -7.9403     3.3379 C.3          1    LIG   0.0000
  15 C15          5.8931    -9.0837     2.3675 C.3          1    LIG   0.0000
  16 C16          4.6346    -9.3779     1.5669 C.3          1    LIG   0.0000
  17 C17          4.2027    -8.1381     0.8005 C.3          1    LIG   0.0000
  18 N18          2.9108    -4.6997     3.0454 N.ar         1    LIG   0.0000
  19 C19          2.4161    -3.6300     3.6869 C.ar         1    LIG   0.0000
  20 N20          2.0480    -2.5390     2.9950 N.ar         1    LIG   0.0000
  21 C21          2.1473    -2.4660     1.6561 C.ar         1    LIG   0.0000
  22 C22          0.1048    -0.0102     0.0162 C.3          1    LIG   0.0000
  23 O23          0.3461    -0.5282    -1.2881 O.3          1    LIG   0.0000
  24 C24          0.0699     1.5063     0.0014 C.3          1    LIG   0.0000
  25 O25         -0.6188     2.0044    -1.1365 O.3          1    LIG   0.0000
  26 H            1.8052     2.1135    -0.9426 H            1    LIG   0.0000
  27 H           -0.7236    -0.3966     0.4217 H            1    LIG   0.0000
  28 H           -0.3630     1.8450     0.8367 H            1    LIG   0.0000
  29 H            1.5462     3.5564     2.8092 H            1    LIG   0.0000
  30 H            2.7609     3.3011     0.8850 H            1    LIG   0.0000
  31 H            1.2629     3.8627     0.5577 H            1    LIG   0.0000
  32 H            1.0999    -0.0505     1.8718 H            1    LIG   0.0000
  33 H            2.0923    -1.5978    -1.4197 H            1    LIG   0.0000
  34 H            3.6312    -5.7604     0.0252 H            1    LIG   0.0000
  35 H            3.2266    -7.2434     2.3927 H            1    LIG   0.0000
  36 H            5.0366    -5.9585     3.2102 H            1    LIG   0.0000
  37 H            5.9525    -6.4320     1.9439 H            1    LIG   0.0000
  38 H            4.9216    -8.1988     3.9788 H            1    LIG   0.0000
  39 H            6.4843    -7.7445     3.8441 H            1    LIG   0.0000
  40 H            6.1565    -9.9007     2.8805 H            1    LIG   0.0000
  41 H            6.6309    -8.8308     1.7416 H            1    LIG   0.0000
  42 H            4.8189   -10.1188     0.9209 H            1    LIG   0.0000
  43 H            3.9028    -9.6535     2.1901 H            1    LIG   0.0000
  44 H            4.9211    -7.8822     0.1536 H            1    LIG   0.0000
  45 H            3.3592    -8.3354     0.3009 H            1    LIG   0.0000
  46 H            2.3212    -3.6450     4.6822 H            1    LIG   0.0000
  47 H            0.3645    -1.5273    -1.2518 H            1    LIG   0.0000
  48 H           -1.5803     1.7335    -1.0892 H            1    LIG   0.0000
@<TRIPOS>BOND
   1        1        2 1
   2        2        3 1
   3        3        4 1
   4        4        5 1
   5        5        6 1
   6        6        7 1
   7        7        8 2
   8        8        9 1
   9        9       10 ar
  10       10       11 1
  11       11       12 1
  12       12       13 1
  13       13       14 1
  14       14       15 1
  15       15       16 1
  16       16       17 1
  17       17       12 1
  18       10       18 ar
  19       18       19 ar
  20       19       20 ar
  21       20       21 ar
  22       21        9 ar
  23       21        6 1
  24        5       22 1
  25       22       23 1
  26       22       24 1
  27       24        3 1
  28       24       25 1
  29        3       26 1
  30       22       27 1
  31       24       28 1
  32        1       29 1
  33        2       30 1
  34        2       31 1
  35        5       32 1
  36        7       33 1
  37       11       34 1
  38       12       35 1
  39       13       36 1
  40       13       37 1
  41       14       38 1
  42       14       39 1
  43       15       40 1
  44       15       41 1
  45       16       42 1
  46       16       43 1
  47       17       44 1
  48       17       45 1
  49       19       46 1
  50       23       47 1
  51       25       48 1

@<TRIPOS>MOLECULE
CHEMBL85549
  48   51
SMALL
USER_CHARGES
@<TRIPOS>ATOM
   1 O1           1.3802     2.7683     2.2165 O.3          1    LIG   0.0000
   2 C2           1.7860     3.0786     0.8916 C.3          1    LIG   0.0000
   3 C3           1.5340     1.8820    -0.0083 C.3          1    LIG   0.0000
   4 O4           2.2497     0.7265     0.4097 O.3          1    LIG   0.0000
   5 C5           1.3140    -0.2104     0.9081 C.3          1    LIG   0.0000
   6 N6           1.8719    -1.5508     0.6824 N.pl3        1    LIG   0.0000
   7 C7           2.1949    -2.0613    -0.5395 C.2          1    LIG   0.0000
   8 N8           2.6654    -3.2733    -0.3501 N.2          1    LIG   0.0000
   9 C9           2.6482    -3.5564     0.9856 C.ar         1    LIG   0.0000
  10 C10          3.0329    -4.6809     1.7094 C.ar         1    LIG   0.0000
  11 N11          3.5460    -5.7868     1.0212 N.pl3        1    LIG   0.0000
  12 C12          3.9593    -6.9865     1.7625 C.3          1    LIG   0.0000
  13 C13          2.7429    -7.7018     2.3281 C.3          1    LIG   0.0000
  14 C14          3.1680    -8.9460     3.0912 C.3          1    LIG   0.0000
  15 C15          4.1127    -8.5549     4.2162 C.3          1    LIG   0.0000
  16 C16          5.3352    -7.8465     3.6547 C.3          1    LIG   0.0000
  17 C17          4.9110    -6.6060     2.8850 C.3          1    LIG   0.0000
  18 N18          2.9108    -4.6997     3.0454 N.ar         1    LIG   0.0000
  19 C19          2.4161    -3.6300     3.6869 C.ar         1    LIG   0.0000
  20 N20          2.0480    -2.5390     2.9950 N.ar         1    LIG   0.0000
  21 C21          2.1473    -2.4660     1.6561 C.ar         1    LIG   0.0000
  22 C22          0.1048    -0.0102     0.0162 C.3          1    LIG   0.0000
  23 O23          0.3461    -0.5282    -1.2881 O.3          1    LIG   0.0000
  24 C24          0.0699     1.5063     0.0014 C.3          1    LIG   0.0000
  25 O25         -0.6188     2.0044    -1.1365 O.3          1    LIG   0.0000
  26 H            1.8052     2.1135    -0.9426 H            1    LIG   0.0000
  27 H           -0.7236    -0.3966     0.4217 H            1    LIG   0.0000
  28 H           -0.3630     1.8450     0.8367 H            1    LIG   0.0000
  29 H            1.5462     3.5564     2.8092 H            1    LIG   0.0000
  30 H            2.7609     3.3011     0.8850 H            1    LIG   0.0000
  31 H            1.2629     3.8627     0.5577 H            1    LIG   0.0000
  32 H            1.0999    -0.0505     1.8718 H            1    LIG   0.0000
  33 H            2.0923    -1.5978    -1.4197 H            1    LIG   0.0000
  34 H            3.6312    -5.7604     0.0252 H            1    LIG   0.0000
  35 H            4.4330    -7.6047     1.1352 H            1    LIG   0.0000
  36 H            2.1375    -7.9663     1.5775 H            1    LIG   0.0000
  37 H            2.2565    -7.0854     2.9474 H            1    LIG   0.0000
  38 H            3.6337    -9.5754     2.4691 H            1    LIG   0.0000
  39 H            2.3603    -9.3934     3.4751 H            1    LIG   0.0000
  40 H            4.4033    -9.3778     4.7044 H            1    LIG   0.0000
  41 H            3.6377    -7.9426     4.8482 H            1    LIG   0.0000
  42 H            5.9375    -7.5793     4.4070 H            1    LIG   0.0000
  43 H            5.8238    -8.4661     3.0405 H            1    LIG   0.0000
  44 H            4.4517    -5.9719     3.5071 H            1    LIG   0.0000
  45 H            5.7203    -6.1648     2.4971 H            1    LIG   0.0000
  46 H            2.3212    -3.6450     4.6822 H            1    LIG   0.0000
  47 H            0.3645    -1.5273    -1.2518 H            1    LIG   0.0000
  48 H           -1.5803     1.7335    -1.0892 H            1    LIG   0.0000
@<TRIPOS>BOND
   1        1        2 1
   2        2        3 1
   3        3        4 1
   4        4        5 1
   5        5        6 1
   6        6        7 1
   7        7        8 2
   8        8        9 1
   9        9       10 ar
  10       10       11 1
  11       11       12 1
  12       12       13 1
  13       13       14 1
  14       14       15 1
  15       15       16 1
  16       16       17 1
  17       17       12 1
  18       10       18 ar
  19       18       19 ar
  20       19       20 ar
  21       20       21 ar
  22       21        9 ar
  23       21        6 1
  24        5       22 1
  25       22       23 1
  26       22       24 1
  27       24        3 1
  28       24       25 1
  29        3       26 1
  30       22       27 1
  31       24       28 1
  32        1       29 1
  33        2       30 1
  34        2       31 1
  35        5       32 1
  36        7       33 1
  37       11       34 1
  38       12       35 1
  39       13       36 1
  40       13       37 1
  41       14       38 1
  42       14       39 1
  43       15       40 1
  44       15       41 1
  45       16       42 1
  46       16       43 1
  47       17       44 1
  48       17       45 1
  49       19       46 1
  50       23       47 1
  51       25       48 1

@<TRIPOS>MOLECULE
CHEMBL85549
  48   51
SMALL
USER_CHARGES
@<TRIPOS>ATOM
   1 O1           1.3802     2.7683     2.2165 O.3          1    LIG   0.0000
   2 C2           1.7860     3.0786     0.8916 C.3          1    LIG   0.0000
   3 C3           1.5340     1.8820    -0.0083 C.3          1    LIG   0.0000
   4 O4           2.2497     0.7265     0.4097 O.3          1    LIG   0.0000
   5 C5           1.3140    -0.2104     0.9081 C.3          1    LIG   0.0000
   6 N6           1.8719    -1.5508     0.6824 N.pl3        1    LIG   0.0000
   7 C7           2.1949    -2.0613    -0.5395 C.2          1    LIG   0.0000
   8 N8           2.6654    -3.2733    -0.3501 N.2          1    LIG   0.0000
   9 C9           2.6482    -3.5564     0.9856 C.ar         1    LIG   0.0000
  10 C10          3.0329    -4.6809     1.7094 C.ar         1    LIG   0.0000
  11 N11          3.5460    -5.7868     1.0212 N.pl3        1    LIG   0.0000
  12 C12          3.9593    -6.9865     1.7625 C.3          1    LIG   0.0000
  13 C13          4.4795    -8.0454     0.8036 C.3          1    LIG   0.0000
  14 C14          4.9123    -9.2856     1.5690 C.3          1    LIG   0.0000
  15 C15          3.7348    -9.8319     2.3602 C.3          1    LIG   0.0000
  16 C16          3.2162    -8.7792     3.3268 C.3          1    LIG   0.0000
  17 C17          2.7898    -7.5356     2.5634 C.3          1    LIG   0.0000
  18 N18          2.9108    -4.6997     3.0454 N.ar         1    LIG   0.0000
  19 C19          2.4161    -3.6300     3.6869 C.ar         1    LIG   0.0000
  20 N20          2.0480    -2.5390     2.9950 N.ar         1    LIG   0.0000
  21 C21          2.1473    -2.4660     1.6561 C.ar         1    LIG   0.0000
  22 C22          0.1048    -0.0102     0.0162 C.3          1    LIG   0.0000
  23 O23          0.3461    -0.5282    -1.2881 O.3          1    LIG   0.0000
  24 C24          0.0699     1.5063     0.0014 C.3          1    LIG   0.0000
  25 O25         -0.6188     2.0044    -1.1365 O.3          1    LIG   0.0000
  26 H            1.8052     2.1135    -0.9426 H            1    LIG   0.0000
  27 H           -0.7236    -0.3966     0.4217 H            1    LIG   0.0000
  28 H           -0.3630     1.8450     0.8367 H            1    LIG   0.0000
  29 H            1.5462     3.5564     2.8092 H            1    LIG   0.0000
  30 H            2.7609     3.3011     0.8850 H            1    LIG   0.0000
  31 H            1.2629     3.8627     0.5577 H            1    LIG   0.0000
  32 H            1.0999    -0.0505     1.8718 H            1    LIG   0.0000
  33 H            2.0923    -1.5978    -1.4197 H            1    LIG   0.0000
  34 H            3.6312    -5.7604     0.0252 H            1    LIG   0.0000
  35 H            4.6929    -6.7370     2.3946 H            1    LIG   0.0000
  36 H            5.2620    -7.6787     0.3006 H            1    LIG   0.0000
  37 H            3.7549    -8.2915     0.1598 H            1    LIG   0.0000
  38 H            5.6536    -9.0478     2.1967 H            1    LIG   0.0000
  39 H            5.2314    -9.9803     0.9243 H            1    LIG   0.0000
  40 H            4.0284   -10.6371     2.8754 H            1    LIG   0.0000
  41 H            3.0034   -10.0888     1.7284 H            1    LIG   0.0000
  42 H            2.4313    -9.1463     3.8261 H            1    LIG   0.0000
  43 H            3.9399    -8.5387     3.9736 H            1    LIG   0.0000
  44 H            2.0434    -7.7697     1.9405 H            1    LIG   0.0000
  45 H            2.4777    -6.8408     3.2113 H            1    LIG   0.0000
  46 H            2.3212    -3.6450     4.6822 H            1    LIG   0.0000
  47 H            0.3645    -1.5273    -1.2518 H            1    LIG   0.0000
  48 H           -1.5803     1.7335    -1.0892 H            1    LIG   0.0000
@<TRIPOS>BOND
   1        1        2 1
   2        2        3 1
   3        3        4 1
   4        4        5 1
   5        5        6 1
   6        6        7 1
   7        7        8 2
   8        8        9 1
   9        9       10 ar
  10       10       11 1
  11       11       12 1
  12       12       13 1
  13       13       14 1
  14       14       15 1
  15       15       16 1
  16       16       17 1
  17       17       12 1
  18       10       18 ar
  19       18       19 ar
  20       19       20 ar
  21       20       21 ar
  22       21        9 ar
  23       21        6 1
  24        5       22 1
  25       22       23 1
  26       22       24 1
  27       24        3 1
  28       24       25 1
  29        3       26 1
  30       22       27 1
  31       24       28 1
  32        1       29 1
  33        2       30 1
  34        2       31 1
  35        5       32 1
  36        7       33 1
  37       11       34 1
  38       12       35 1
  39       13       36 1
  40       13       37 1
  41       14       38 1
  42       14       39 1
  43       15       40 1
  44       15       41 1
  45       16       42 1
  46       16       43 1
  47       17       44 1
  48       17       45 1
  49       19       46 1
  50       23       47 1
  51       25       48 1

@<TRIPOS>MOLECULE
CHEMBL85549
  48   51
SMALL
USER_CHARGES
@<TRIPOS>ATOM
   1 O1           1.3802     2.7683     2.2165 O.3          1    LIG   0.0000
   2 C2           1.7860     3.0786     0.8916 C.3          1    LIG   0.0000
   3 C3           1.5340     1.8820    -0.0083 C.3          1    LIG   0.0000
   4 O4           2.2497     0.7265     0.4097 O.3          1    LIG   0.0000
   5 C5           1.3140    -0.2104     0.9081 C.3          1    LIG   0.0000
   6 N6           1.8719    -1.5508     0.6824 N.pl3        1    LIG   0.0000
   7 C7           2.1949    -2.0613    -0.5395 C.2          1    LIG   0.0000
   8 N8           2.6654    -3.2733    -0.3501 N.2          1    LIG   0.0000
   9 C9           2.6482    -3.5564     0.9856 C.ar         1    LIG   0.0000
  10 C10          3.0329    -4.6809     1.7094 C.ar         1    LIG   0.0000
  11 N11          3.5460    -5.7868     1.0212 N.pl3        1    LIG   0.0000
  12 C12          3.9594    -6.9867     1.7626 C.3          1    LIG   0.0000
  13 C13          2.7413    -7.6998     2.3270 C.3          1    LIG   0.0000
  14 C14          3.1726    -8.9434     3.0874 C.3          1    LIG   0.0000
  15 C15          3.9400    -9.8815     2.1697 C.3          1    LIG   0.0000
  16 C16          5.1589    -9.1630     1.6131 C.3          1    LIG   0.0000
  17 C17          4.7366    -7.9192     0.8476 C.3          1    LIG   0.0000
  18 N18          2.9108    -4.6997     3.0454 N.ar         1    LIG   0.0000
  19 C19          2.4161    -3.6300     3.6869 C.ar         1    LIG   0.0000
  20 N20          2.0480    -2.5390     2.9950 N.ar         1    LIG   0.0000
  21 C21          2.1473    -2.4660     1.6561 C.ar         1    LIG   0.0000
  22 C22          0.1048    -0.0102     0.0162 C.3          1    LIG   0.0000
  23 O23          0.3461    -0.5282    -1.2881 O.3          1    LIG   0.0000
  24 C24          0.0699     1.5063     0.0014 C.3          1    LIG   0.0000
  25 O25         -0.6188     2.0044    -1.1365 O.3          1    LIG   0.0000
  26 H            1.8052     2.1135    -0.9426 H            1    LIG   0.0000
  27 H           -0.7236    -0.3966     0.4217 H            1    LIG   0.0000
  28 H           -0.3630     1.8450     0.8367 H            1    LIG   0.0000
  29 H            1.5462     3.5564     2.8092 H            1    LIG   0.0000
  30 H            2.7609     3.3011     0.8850 H            1    LIG   0.0000
  31 H            1.2629     3.8627     0.5577 H            1    LIG   0.0000
  32 H            1.0999    -0.0505     1.8718 H            1    LIG   0.0000
  33 H            2.0923    -1.5978    -1.4197 H            1    LIG   0.0000
  34 H            3.6312    -5.7604     0.0252 H            1    LIG   0.0000
  35 H            4.5512    -6.7103     2.5198 H            1    LIG   0.0000
  36 H            2.1352    -7.9641     1.5768 H            1    LIG   0.0000
  37 H            2.2552    -7.0844     2.9473 H            1    LIG   0.0000
  38 H            2.3626    -9.4136     3.4377 H            1    LIG   0.0000
  39 H            3.7595    -8.6760     3.8517 H            1    LIG   0.0000
  40 H            3.3487   -10.1675     1.4156 H            1    LIG   0.0000
  41 H            4.2343   -10.6858     2.6860 H            1    LIG   0.0000
  42 H            5.7584    -8.8976     2.3683 H            1    LIG   0.0000
  43 H            5.6512    -9.7779     0.9971 H            1    LIG   0.0000
  44 H            5.5500    -7.4475     0.5070 H            1    LIG   0.0000
  45 H            4.1581    -8.1851     0.0764 H            1    LIG   0.0000
  46 H            2.3212    -3.6450     4.6822 H            1    LIG   0.0000
  47 H            0.3645    -1.5273    -1.2518 H            1    LIG   0.0000
  48 H           -1.5803     1.7335    -1.0892 H            1    LIG   0.0000
@<TRIPOS>BOND
   1        1        2 1
   2        2        3 1
   3        3        4 1
   4        4        5 1
   5        5        6 1
   6        6        7 1
   7        7        8 2
   8        8        9 1
   9        9       10 ar
  10       10       11 1
  11       11       12 1
  12       12       13 1
  13       13       14 1
  14       14       15 1
  15       15       16 1
  16       16       17 1
  17       17       12 1
  18       10       18 ar
  19       18       19 ar
  20       19       20 ar
  21       20       21 ar
  22       21        9 ar
  23       21        6 1
  24        5       22 1
  25       22       23 1
  26       22       24 1
  27       24        3 1
  28       24       25 1
  29        3       26 1
  30       22       27 1
  31       24       28 1
  32        1       29 1
  33        2       30 1
  34        2       31 1
  35        5       32 1
  36        7       33 1
  37       11       34 1
  38       12       35 1
  39       13       36 1
  40       13       37 1
  41       14       38 1
  42       14       39 1
  43       15       40 1
  44       15       41 1
  45       16       42 1
  46       16       43 1
  47       17       44 1
  48       17       45 1
  49       19       46 1
  50       23       47 1
  51       25       48 1

@<TRIPOS>MOLECULE
CHEMBL85549
  48   51
SMALL
USER_CHARGES
@<TRIPOS>ATOM
   1 O1           1.3802     2.7683     2.2165 O.3          1    LIG   0.0000
   2 C2           1.7860     3.0786     0.8916 C.3          1    LIG   0.0000
   3 C3           1.5340     1.8820    -0.0083 C.3          1    LIG   0.0000
   4 O4           2.2497     0.7265     0.4097 O.3          1    LIG   0.0000
   5 C5           1.3140    -0.2104     0.9081 C.3          1    LIG   0.0000
   6 N6           1.8719    -1.5508     0.6824 N.pl3        1    LIG   0.0000
   7 C7           2.1949    -2.0613    -0.5395 C.2          1    LIG   0.0000
   8 N8           2.6654    -3.2733    -0.3501 N.2          1    LIG   0.0000
   9 C9           2.6482    -3.5564     0.9856 C.ar         1    LIG   0.0000
  10 C10          3.0329    -4.6809     1.7094 C.ar         1    LIG   0.0000
  11 N11          3.5460    -5.7868     1.0212 N.pl3        1    LIG   0.0000
  12 C12          3.9594    -6.9867     1.7626 C.3          1    LIG   0.0000
  13 C13          4.4790    -8.0437     0.8016 C.3          1    LIG   0.0000
  14 C14          4.9113    -9.2803     1.5726 C.3          1    LIG   0.0000
  15 C15          5.9934    -8.9215     2.5784 C.3          1    LIG   0.0000
  16 C16          5.4649    -7.8678     3.5387 C.3          1    LIG   0.0000
  17 C17          5.0332    -6.6253     2.7762 C.3          1    LIG   0.0000
  18 N18          2.9108    -4.6997     3.0454 N.ar         1    LIG   0.0000
  19 C19          2.4161    -3.6300     3.6869 C.ar         1    LIG   0.0000
  20 N20          2.0480    -2.5390     2.9950 N.ar         1    LIG   0.0000
  21 C21          2.1473    -2.4660     1.6561 C.ar         1    LIG   0.0000
  22 C22          0.1048    -0.0102     0.0162 C.3          1    LIG   0.0000
  23 O23          0.3461    -0.5282    -1.2881 O.3          1    LIG   0.0000
  24 C24          0.0699     1.5063     0.0014 C.3          1    LIG   0.0000
  25 O25         -0.6188     2.0044    -1.1365 O.3          1    LIG   0.0000
  26 H            1.8052     2.1135    -0.9426 H            1    LIG   0.0000
  27 H           -0.7236    -0.3966     0.4217 H            1    LIG   0.0000
  28 H           -0.3630     1.8450     0.8367 H            1    LIG   0.0000
  29 H            1.5462     3.5564     2.8092 H            1    LIG   0.0000
  30 H            2.7609     3.3011     0.8850 H            1    LIG   0.0000
  31 H            1.2629     3.8627     0.5577 H            1    LIG   0.0000
  32 H            1.0999    -0.0505     1.8718 H            1    LIG   0.0000
  33 H            2.0923    -1.5978    -1.4197 H            1    LIG   0.0000
  34 H            3.6312    -5.7604     0.0252 H            1    LIG   0.0000
  35 H            3.1669    -7.3545     2.2491 H            1    LIG   0.0000
  36 H            5.2612    -7.6773     0.2978 H            1    LIG   0.0000
  37 H            3.7544    -8.2911     0.1583 H            1    LIG   0.0000
  38 H            5.2682    -9.9606     0.9324 H            1    LIG   0.0000
  39 H            4.1230    -9.6597     2.0570 H            1    LIG   0.0000
  40 H            6.7914    -8.5615     2.0951 H            1    LIG   0.0000
  41 H            6.2553    -9.7387     3.0918 H            1    LIG   0.0000
  42 H            4.6804    -8.2386     4.0358 H            1    LIG   0.0000
  43 H            6.1851    -7.6225     4.1877 H            1    LIG   0.0000
  44 H            4.6688    -5.9517     3.4192 H            1    LIG   0.0000
  45 H            5.8223    -6.2382     2.2993 H            1    LIG   0.0000
  46 H            2.3212    -3.6450     4.6822 H            1    LIG   0.0000
  47 H            0.3645    -1.5273    -1.2518 H            1    LIG   0.0000
  48 H           -1.5803     1.7335    -1.0892 H            1    LIG   0.0000
@<TRIPOS>BOND
   1        1        2 1
   2        2        3 1
   3        3        4 1
   4        4        5 1
   5        5        6 1
   6        6        7 1
   7        7        8 2
   8        8        9 1
   9        9       10 ar
  10       10       11 1
  11       11       12 1
  12       12       13 1
  13       13       14 1
  14       14       15 1
  15       15       16 1
  16       16       17 1
  17       17       12 1
  18       10       18 ar
  19       18       19 ar
  20       19       20 ar
  21       20       21 ar
  22       21        9 ar
  23       21        6 1
  24        5       22 1
  25       22       23 1
  26       22       24 1
  27       24        3 1
  28       24       25 1
  29        3       26 1
  30       22       27 1
  31       24       28 1
  32        1       29 1
  33        2       30 1
  34        2       31 1
  35        5       32 1
  36        7       33 1
  37       11       34 1
  38       12       35 1
  39       13       36 1
  40       13       37 1
  41       14       38 1
  42       14       39 1
  43       15       40 1
  44       15       41 1
  45       16       42 1
  46       16       43 1
  47       17       44 1
  48       17       45 1
  49       19       46 1
  50       23       47 1
  51       25       48 1

@<TRIPOS>MOLECULE
CHEMBL85549
  48   51
SMALL
USER_CHARGES
@<TRIPOS>ATOM
   1 O1           1.3802     2.7683     2.2165 O.3          1    LIG   0.0000
   2 C2           1.7860     3.0786     0.8916 C.3          1    LIG   0.0000
   3 C3           1.5340     1.8820    -0.0083 C.3          1    LIG   0.0000
   4 O4           2.2497     0.7265     0.4097 O.3          1    LIG   0.0000
   5 C5           1.3140    -0.2104     0.9081 C.3          1    LIG   0.0000
   6 N6           1.8719    -1.5508     0.6824 N.pl3        1    LIG   0.0000
   7 C7           1.2550    -2.7163     1.0272 C.2          1    LIG   0.0000
   8 N8           2.0455    -3.7031     0.6700 N.2          1    LIG   0.0000
   9 C9           3.1736    -3.1883     0.0981 C.ar         1    LIG   0.0000
  10 C10          4.3068    -3.7883    -0.4423 C.ar         1    LIG   0.0000
  11 N11          4.3995    -5.1852    -0.4417 N.pl3        1    LIG   0.0000
  12 C12          5.5859    -5.8432    -1.0065 C.3          1    LIG   0.0000
  13 C13          5.6078    -5.6833    -2.5181 C.3          1    LIG   0.0000
  14 C14          6.8371    -6.3591    -3.1041 C.3          1    LIG   0.0000
  15 C15          6.8309    -7.8340    -2.7358 C.3          1    LIG   0.0000
  16 C16          6.8176    -7.9993    -1.2246 C.3          1    LIG   0.0000
  17 C17          5.5925    -7.3176    -0.6365 C.3          1    LIG   0.0000
  18 N18          5.2923    -3.0350    -0.9537 N.ar         1    LIG   0.0000
  19 C19          5.1852    -1.6975    -0.9444 C.ar         1    LIG   0.0000
  20 N20          4.0916    -1.1118    -0.4294 N.ar         1    LIG   0.0000
  21 C21          3.0751    -1.8173     0.0968 C.ar         1    LIG   0.0000
  22 C22          0.1048    -0.0102     0.0162 C.3          1    LIG   0.0000
  23 O23          0.3461    -0.5282    -1.2881 O.3          1    LIG   0.0000
  24 C24          0.0699     1.5063     0.0014 C.3          1    LIG   0.0000
  25 O25         -0.6188     2.0044    -1.1365 O.3          1    LIG   0.0000
  26 H            1.8052     2.1135    -0.9426 H            1    LIG   0.0000
  27 H           -0.7236    -0.3966     0.4217 H            1    LIG   0.0000
  28 H           -0.3630     1.8450     0.8367 H            1    LIG   0.0000
  29 H            1.5462     3.5564     2.8092 H            1    LIG   0.0000
  30 H            2.7609     3.3011     0.8850 H            1    LIG   0.0000
  31 H            1.2629     3.8627     0.5577 H            1    LIG   0.0000
  32 H            1.0999    -0.0505     1.8718 H            1    LIG   0.0000
  33 H            0.3632    -2.8043     1.4711 H            1    LIG   0.0000
  34 H            3.6583    -5.7353    -0.0568 H            1    LIG   0.0000
  35 H            6.4042    -5.4126    -0.6258 H            1    LIG   0.0000
  36 H            5.6264    -4.7099    -2.7464 H            1    LIG   0.0000
  37 H            4.7859    -6.1009    -2.9057 H            1    LIG   0.0000
  38 H            7.6611    -5.9276    -2.7368 H            1    LIG   0.0000
  39 H            6.8266    -6.2643    -4.0995 H            1    LIG   0.0000
  40 H            7.6498    -8.2707    -3.1084 H            1    LIG   0.0000
  41 H            6.0168    -8.2673    -3.1225 H            1    LIG   0.0000
  42 H            6.7950    -8.9731    -0.9983 H            1    LIG   0.0000
  43 H            7.6429    -7.5866    -0.8392 H            1    LIG   0.0000
  44 H            4.7673    -7.7525    -0.9968 H            1    LIG   0.0000
  45 H            5.6097    -7.4085     0.3592 H            1    LIG   0.0000
  46 H            5.9212    -1.1355    -1.3218 H            1    LIG   0.0000
  47 H            0.3645    -1.5273    -1.2518 H            1    LIG   0.0000
  48 H           -1.5803     1.7335    -1.0892 H            1    LIG   0.0000
@<TRIPOS>BOND
   1        1        2 1
   2        2        3 1
   3        3        4 1
   4        4        5 1
   5        5        6 1
   6        6        7 1
   7        7        8 2
   8        8        9 1
   9        9       10 ar
  10       10       11 1
  11       11       12 1
  12       12       13 1
  13       13       14 1
  14       14       15 1
  15       15       16 1
  16       16       17 1
  17       17       12 1
  18       10       18 ar
  19       18       19 ar
  20       19       20 ar
  21       20       21 ar
  22       21        9 ar
  23       21        6 1
  24        5       22 1
  25       22       23 1
  26       22       24 1
  27       24        3 1
  28       24       25 1
  29        3       26 1
  30       22       27 1
  31       24       28 1
  32        1       29 1
  33        2       30 1
  34        2       31 1
  35        5       32 1
  36        7       33 1
  37       11       34 1
  38       12       35 1
  39       13       36 1
  40       13       37 1
  41       14       38 1
  42       14       39 1
  43       15       40 1
  44       15       41 1
  45       16       42 1
  46       16       43 1
  47       17       44 1
  48       17       45 1
  49       19       46 1
  50       23       47 1
  51       25       48 1

@<TRIPOS>MOLECULE
CHEMBL85549
  48   51
SMALL
USER_CHARGES
@<TRIPOS>ATOM
   1 O1           1.3802     2.7683     2.2165 O.3          1    LIG   0.0000
   2 C2           1.7860     3.0786     0.8916 C.3          1    LIG   0.0000
   3 C3           1.5340     1.8820    -0.0083 C.3          1    LIG   0.0000
   4 O4           2.2497     0.7265     0.4097 O.3          1    LIG   0.0000
   5 C5           1.3140    -0.2104     0.9081 C.3          1    LIG   0.0000
   6 N6           1.8719    -1.5508     0.6824 N.pl3        1    LIG   0.0000
   7 C7           1.2550    -2.7163     1.0272 C.2          1    LIG   0.0000
   8 N8           2.0455    -3.7031     0.6700 N.2          1    LIG   0.0000
   9 C9           3.1736    -3.1883     0.0981 C.ar         1    LIG   0.0000
  10 C10          4.3068    -3.7883    -0.4423 C.ar         1    LIG   0.0000
  11 N11          4.3995    -5.1852    -0.4417 N.pl3        1    LIG   0.0000
  12 C12          5.5861    -5.8433    -1.0066 C.3          1    LIG   0.0000
  13 C13          5.4533    -7.3532    -0.8907 C.3          1    LIG   0.0000
  14 C14          6.6794    -8.0301    -1.4816 C.3          1    LIG   0.0000
  15 C15          6.8448    -7.6376    -2.9411 C.3          1    LIG   0.0000
  16 C16          6.9817    -6.1272    -3.0484 C.3          1    LIG   0.0000
  17 C17          5.7577    -5.4416    -2.4626 C.3          1    LIG   0.0000
  18 N18          5.2923    -3.0350    -0.9537 N.ar         1    LIG   0.0000
  19 C19          5.1852    -1.6975    -0.9444 C.ar         1    LIG   0.0000
  20 N20          4.0916    -1.1118    -0.4294 N.ar         1    LIG   0.0000
  21 C21          3.0751    -1.8173     0.0968 C.ar         1    LIG   0.0000
  22 C22          0.1048    -0.0102     0.0162 C.3          1    LIG   0.0000
  23 O23          0.3461    -0.5282    -1.2881 O.3          1    LIG   0.0000
  24 C24          0.0699     1.5063     0.0014 C.3          1    LIG   0.0000
  25 O25         -0.6188     2.0044    -1.1365 O.3          1    LIG   0.0000
  26 H            1.8052     2.1135    -0.9426 H            1    LIG   0.0000
  27 H           -0.7236    -0.3966     0.4217 H            1    LIG   0.0000
  28 H           -0.3630     1.8450     0.8367 H            1    LIG   0.0000
  29 H            1.5462     3.5564     2.8092 H            1    LIG   0.0000
  30 H            2.7609     3.3011     0.8850 H            1    LIG   0.0000
  31 H            1.2629     3.8627     0.5577 H            1    LIG   0.0000
  32 H            1.0999    -0.0505     1.8718 H            1    LIG   0.0000
  33 H            0.3632    -2.8043     1.4711 H            1    LIG   0.0000
  34 H            3.6583    -5.7353    -0.0568 H            1    LIG   0.0000
  35 H            6.3928    -5.5499    -0.4936 H            1    LIG   0.0000
  36 H            4.6383    -7.6529    -1.3865 H            1    LIG   0.0000
  37 H            5.3684    -7.6051     0.0734 H            1    LIG   0.0000
  38 H            6.5723    -9.0222    -1.4166 H            1    LIG   0.0000
  39 H            7.4910    -7.7481    -0.9699 H            1    LIG   0.0000
  40 H            6.0439    -7.9372    -3.4595 H            1    LIG   0.0000
  41 H            7.6645    -8.0737    -3.3125 H            1    LIG   0.0000
  42 H            7.7956    -5.8335    -2.5469 H            1    LIG   0.0000
  43 H            7.0733    -5.8721    -4.0110 H            1    LIG   0.0000
  44 H            5.8732    -4.4500    -2.5215 H            1    LIG   0.0000
  45 H            4.9461    -5.7139    -2.9795 H            1    LIG   0.0000
  46 H            5.9212    -1.1355    -1.3218 H            1    LIG   0.0000
  47 H            0.3645    -1.5273    -1.2518 H            1    LIG   0.0000
  48 H           -1.5803     1.7335    -1.0892 H            1    LIG   0.0000
@<TRIPOS>BOND
   1        1        2 1
   2        2        3 1
   3        3        4 1
   4        4        5 1
   5        5        6 1
   6        6        7 1
   7        7        8 2
   8        8        9 1
   9        9       10 ar
  10       10       11 1
  11       11       12 1
  12       12       13 1
  13       13       14 1
  14       14       15 1
  15       15       16 1
  16       16       17 1
  17       17       12 1
  18       10       18 ar
  19       18       19 ar
  20       19       20 ar
  21       20       21 ar
  22       21        9 ar
  23       21        6 1
  24        5       22 1
  25       22       23 1
  26       22       24 1
  27       24        3 1
  28       24       25 1
  29        3       26 1
  30       22       27 1
  31       24       28 1
  32        1       29 1
  33        2       30 1
  34        2       31 1
  35        5       32 1
  36        7       33 1
  37       11       34 1
  38       12       35 1
  39       13       36 1
  40       13       37 1
  41       14       38 1
  42       14       39 1
  43       15       40 1
  44       15       41 1
  45       16       42 1
  46       16       43 1
  47       17       44 1
  48       17       45 1
  49       19       46 1
  50       23       47 1
  51       25       48 1

@<TRIPOS>MOLECULE
CHEMBL85549
  48   51
SMALL
USER_CHARGES
@<TRIPOS>ATOM
   1 O1           0.1006     1.5750     2.4406 O.3          1    LIG   0.0000
   2 C2          -0.5499     2.1212     1.3026 C.3          1    LIG   0.0000
   3 C3           0.0733     1.5491     0.0394 C.3          1    LIG   0.0000
   4 O4           1.4556     1.8246    -0.0978 O.3          1    LIG   0.0000
   5 C5           2.2010     0.7963     0.5413 C.3          1    LIG   0.0000
   6 N6           3.1890     0.3303    -0.4413 N.pl3        1    LIG   0.0000
   7 C7           4.4138    -0.1795    -0.1284 C.2          1    LIG   0.0000
   8 N8           5.0129    -0.4900    -1.2558 N.2          1    LIG   0.0000
   9 C9           4.1882    -0.1832    -2.3001 C.ar         1    LIG   0.0000
  10 C10          4.3345    -0.3124    -3.6779 C.ar         1    LIG   0.0000
  11 N11          5.5243    -0.8475    -4.1857 N.pl3        1    LIG   0.0000
  12 C12          5.7034    -0.9943    -5.6370 C.3          1    LIG   0.0000
  13 C13          4.7954    -2.0899    -6.1720 C.3          1    LIG   0.0000
  14 C14          4.9756    -2.2400    -7.6741 C.3          1    LIG   0.0000
  15 C15          6.4273    -2.5695    -7.9819 C.3          1    LIG   0.0000
  16 C16          7.3391    -1.4724    -7.4560 C.3          1    LIG   0.0000
  17 C17          7.1546    -1.3161    -5.9551 C.3          1    LIG   0.0000
  18 N18          3.3480     0.0725    -4.5017 N.ar         1    LIG   0.0000
  19 C19          2.2153     0.5838    -3.9957 C.ar         1    LIG   0.0000
  20 N20          2.0651     0.7062    -2.6665 N.ar         1    LIG   0.0000
  21 C21          3.0208     0.3379    -1.7953 C.ar         1    LIG   0.0000
  22 C22          1.2030    -0.2914     0.8991 C.3          1    LIG   0.0000
  23 O23          1.7119    -1.5945     0.6501 O.3          1    LIG   0.0000
  24 C24          0.0305     0.0380    -0.0005 C.3          1    LIG   0.0000
  25 O25          0.2108    -0.4241    -1.3330 O.3          1    LIG   0.0000
  26 H           -0.4122     1.9105    -0.7567 H            1    LIG   0.0000
  27 H            0.9332    -0.2066     1.8583 H            1    LIG   0.0000
  28 H           -0.8252    -0.3065     0.3856 H            1    LIG   0.0000
  29 H           -0.3093     1.9514     3.2715 H            1    LIG   0.0000
  30 H           -0.4460     3.1158     1.3046 H            1    LIG   0.0000
  31 H           -1.5219     1.8875     1.3301 H            1    LIG   0.0000
  32 H            2.6543     1.1449     1.3616 H            1    LIG   0.0000
  33 H            4.7882    -0.2959     0.7915 H            1    LIG   0.0000
  34 H            6.2523    -1.1299    -3.5610 H            1    LIG   0.0000
  35 H            5.4610    -0.1310    -6.0797 H            1    LIG   0.0000
  36 H            3.8436    -1.8540    -5.9761 H            1    LIG   0.0000
  37 H            5.0234    -2.9547    -5.7246 H            1    LIG   0.0000
  38 H            4.7251    -1.3841    -8.1266 H            1    LIG   0.0000
  39 H            4.3887    -2.9777    -8.0078 H            1    LIG   0.0000
  40 H            6.5448    -2.6501    -8.9716 H            1    LIG   0.0000
  41 H            6.6686    -3.4364    -7.5458 H            1    LIG   0.0000
  42 H            8.2906    -1.7118    -7.6494 H            1    LIG   0.0000
  43 H            7.1139    -0.6096    -7.9088 H            1    LIG   0.0000
  44 H            7.4116    -2.1686    -5.5000 H            1    LIG   0.0000
  45 H            7.7378    -0.5735    -5.6259 H            1    LIG   0.0000
  46 H            1.4813     0.8745    -4.6095 H            1    LIG   0.0000
  47 H            2.4825    -1.7739     1.2617 H            1    LIG   0.0000
  48 H            0.1806    -1.4236    -1.3462 H            1    LIG   0.0000
@<TRIPOS>BOND
   1        1        2 1
   2        2        3 1
   3        3        4 1
   4        4        5 1
   5        5        6 1
   6        6        7 1
   7        7        8 2
   8        8        9 1
   9        9       10 ar
  10       10       11 1
  11       11       12 1
  12       12       13 1
  13       13       14 1
  14       14       15 1
  15       15       16 1
  16       16       17 1
  17       17       12 1
  18       10       18 ar
  19       18       19 ar
  20       19       20 ar
  21       20       21 ar
  22       21        9 ar
  23       21        6 1
  24        5       22 1
  25       22       23 1
  26       22       24 1
  27       24        3 1
  28       24       25 1
  29        3       26 1
  30       22       27 1
  31       24       28 1
  32        1       29 1
  33        2       30 1
  34        2       31 1
  35        5       32 1
  36        7       33 1
  37       11       34 1
  38       12       35 1
  39       13       36 1
  40       13       37 1
  41       14       38 1
  42       14       39 1
  43       15       40 1
  44       15       41 1
  45       16       42 1
  46       16       43 1
  47       17       44 1
  48       17       45 1
  49       19       46 1
  50       23       47 1
  51       25       48 1

@<TRIPOS>MOLECULE
CHEMBL85549
  48   51
SMALL
USER_CHARGES
@<TRIPOS>ATOM
   1 O1           0.1006     1.5750     2.4406 O.3          1    LIG   0.0000
   2 C2          -0.5499     2.1212     1.3026 C.3          1    LIG   0.0000
   3 C3           0.0733     1.5491     0.0394 C.3          1    LIG   0.0000
   4 O4           1.4556     1.8246    -0.0978 O.3          1    LIG   0.0000
   5 C5           2.2010     0.7963     0.5413 C.3          1    LIG   0.0000
   6 N6           3.1890     0.3303    -0.4413 N.pl3        1    LIG   0.0000
   7 C7           4.4138    -0.1795    -0.1284 C.2          1    LIG   0.0000
   8 N8           5.0129    -0.4900    -1.2558 N.2          1    LIG   0.0000
   9 C9           4.1882    -0.1832    -2.3001 C.ar         1    LIG   0.0000
  10 C10          4.3345    -0.3124    -3.6779 C.ar         1    LIG   0.0000
  11 N11          5.5243    -0.8475    -4.1857 N.pl3        1    LIG   0.0000
  12 C12          5.7034    -0.9943    -5.6370 C.3          1    LIG   0.0000
  13 C13          5.8514     0.3703    -6.2904 C.3          1    LIG   0.0000
  14 C14          6.0418     0.2205    -7.7912 C.3          1    LIG   0.0000
  15 C15          4.8509    -0.5151    -8.3842 C.3          1    LIG   0.0000
  16 C16          4.7037    -1.8842    -7.7397 C.3          1    LIG   0.0000
  17 C17          4.5206    -1.7362    -6.2378 C.3          1    LIG   0.0000
  18 N18          3.3480     0.0725    -4.5017 N.ar         1    LIG   0.0000
  19 C19          2.2153     0.5838    -3.9957 C.ar         1    LIG   0.0000
  20 N20          2.0651     0.7062    -2.6665 N.ar         1    LIG   0.0000
  21 C21          3.0208     0.3379    -1.7953 C.ar         1    LIG   0.0000
  22 C22          1.2030    -0.2914     0.8991 C.3          1    LIG   0.0000
  23 O23          1.7119    -1.5945     0.6501 O.3          1    LIG   0.0000
  24 C24          0.0305     0.0380    -0.0005 C.3          1    LIG   0.0000
  25 O25          0.2108    -0.4241    -1.3330 O.3          1    LIG   0.0000
  26 H           -0.4122     1.9105    -0.7567 H            1    LIG   0.0000
  27 H            0.9332    -0.2066     1.8583 H            1    LIG   0.0000
  28 H           -0.8252    -0.3065     0.3856 H            1    LIG   0.0000
  29 H           -0.3093     1.9514     3.2715 H            1    LIG   0.0000
  30 H           -0.4460     3.1158     1.3046 H            1    LIG   0.0000
  31 H           -1.5219     1.8875     1.3301 H            1    LIG   0.0000
  32 H            2.6543     1.1449     1.3616 H            1    LIG   0.0000
  33 H            4.7882    -0.2959     0.7915 H            1    LIG   0.0000
  34 H            6.2523    -1.1299    -3.5610 H            1    LIG   0.0000
  35 H            6.5347    -1.5237    -5.8064 H            1    LIG   0.0000
  36 H            6.6460     0.8372    -5.9023 H            1    LIG   0.0000
  37 H            5.0286     0.9108    -6.1149 H            1    LIG   0.0000
  38 H            6.8772    -0.2990    -7.9707 H            1    LIG   0.0000
  39 H            6.1160     1.1258    -8.2095 H            1    LIG   0.0000
  40 H            4.9885    -0.6266    -9.3684 H            1    LIG   0.0000
  41 H            4.0201     0.0172    -8.2220 H            1    LIG   0.0000
  42 H            3.9064    -2.3479    -8.1262 H            1    LIG   0.0000
  43 H            5.5247    -2.4255    -7.9213 H            1    LIG   0.0000
  44 H            3.6816    -1.2233    -6.0560 H            1    LIG   0.0000
  45 H            4.4535    -2.6432    -5.8220 H            1    LIG   0.0000
  46 H            1.4813     0.8745    -4.6095 H            1    LIG   0.0000
  47 H            2.4825    -1.7739     1.2617 H            1    LIG   0.0000
  48 H            0.1806    -1.4236    -1.3462 H            1    LIG   0.0000
@<TRIPOS>BOND
   1        1        2 1
   2        2        3 1
   3        3        4 1
   4        4        5 1
   5        5        6 1
   6        6        7 1
   7        7        8 2
   8        8        9 1
   9        9       10 ar
  10       10       11 1
  11       11       12 1
  12       12       13 1
  13       13       14 1
  14       14       15 1
  15       15       16 1
  16       16       17 1
  17       17       12 1
  18       10       18 ar
  19       18       19 ar
  20       19       20 ar
  21       20       21 ar
  22       21        9 ar
  23       21        6 1
  24        5       22 1
  25       22       23 1
  26       22       24 1
  27       24        3 1
  28       24       25 1
  29        3       26 1
  30       22       27 1
  31       24       28 1
  32        1       29 1
  33        2       30 1
  34        2       31 1
  35        5       32 1
  36        7       33 1
  37       11       34 1
  38       12       35 1
  39       13       36 1
  40       13       37 1
  41       14       38 1
  42       14       39 1
  43       15       40 1
  44       15       41 1
  45       16       42 1
  46       16       43 1
  47       17       44 1
  48       17       45 1
  49       19       46 1
  50       23       47 1
  51       25       48 1

@<TRIPOS>MOLECULE
CHEMBL85549
  48   51
SMALL
USER_CHARGES
@<TRIPOS>ATOM
   1 O1           0.1006     1.5750     2.4406 O.3          1    LIG   0.0000
   2 C2          -0.5499     2.1212     1.3026 C.3          1    LIG   0.0000
   3 C3           0.0733     1.5491     0.0394 C.3          1    LIG   0.0000
   4 O4           1.4556     1.8246    -0.0978 O.3          1    LIG   0.0000
   5 C5           2.2010     0.7963     0.5413 C.3          1    LIG   0.0000
   6 N6           3.1890     0.3303    -0.4413 N.pl3        1    LIG   0.0000
   7 C7           4.4138    -0.1795    -0.1284 C.2          1    LIG   0.0000
   8 N8           5.0129    -0.4900    -1.2558 N.2          1    LIG   0.0000
   9 C9           4.1882    -0.1832    -2.3001 C.ar         1    LIG   0.0000
  10 C10          4.3345    -0.3124    -3.6779 C.ar         1    LIG   0.0000
  11 N11          5.5243    -0.8475    -4.1857 N.pl3        1    LIG   0.0000
  12 C12          5.7034    -0.9943    -5.6370 C.3          1    LIG   0.0000
  13 C13          7.0667    -1.5941    -5.9417 C.3          1    LIG   0.0000
  14 C14          7.2521    -1.7514    -7.4424 C.3          1    LIG   0.0000
  15 C15          7.1165    -0.3957    -8.1166 C.3          1    LIG   0.0000
  16 C16          5.7512     0.2048    -7.8217 C.3          1    LIG   0.0000
  17 C17          5.5615     0.3558    -6.3209 C.3          1    LIG   0.0000
  18 N18          3.3480     0.0725    -4.5017 N.ar         1    LIG   0.0000
  19 C19          2.2153     0.5838    -3.9957 C.ar         1    LIG   0.0000
  20 N20          2.0651     0.7062    -2.6665 N.ar         1    LIG   0.0000
  21 C21          3.0208     0.3379    -1.7953 C.ar         1    LIG   0.0000
  22 C22          1.2030    -0.2914     0.8991 C.3          1    LIG   0.0000
  23 O23          1.7119    -1.5945     0.6501 O.3          1    LIG   0.0000
  24 C24          0.0305     0.0380    -0.0005 C.3          1    LIG   0.0000
  25 O25          0.2108    -0.4241    -1.3330 O.3          1    LIG   0.0000
  26 H           -0.4122     1.9105    -0.7567 H            1    LIG   0.0000
  27 H            0.9332    -0.2066     1.8583 H            1    LIG   0.0000
  28 H           -0.8252    -0.3065     0.3856 H            1    LIG   0.0000
  29 H           -0.3093     1.9514     3.2715 H            1    LIG   0.0000
  30 H           -0.4460     3.1158     1.3046 H            1    LIG   0.0000
  31 H           -1.5219     1.8875     1.3301 H            1    LIG   0.0000
  32 H            2.6543     1.1449     1.3616 H            1    LIG   0.0000
  33 H            4.7882    -0.2959     0.7915 H            1    LIG   0.0000
  34 H            6.2523    -1.1299    -3.5610 H            1    LIG   0.0000
  35 H            4.9963    -1.6083    -5.9877 H            1    LIG   0.0000
  36 H            7.1373    -2.4910    -5.5051 H            1    LIG   0.0000
  37 H            7.7796    -0.9916    -5.5829 H            1    LIG   0.0000
  38 H            6.5552    -2.3727    -7.8008 H            1    LIG   0.0000
  39 H            8.1603    -2.1264    -7.6283 H            1    LIG   0.0000
  40 H            7.2218    -0.5064    -9.1049 H            1    LIG   0.0000
  41 H            7.8279     0.2169    -7.7721 H            1    LIG   0.0000
  42 H            5.6840     1.1031    -8.2558 H            1    LIG   0.0000
  43 H            5.0397    -0.3958    -8.1864 H            1    LIG   0.0000
  44 H            6.2529     0.9827    -5.9617 H            1    LIG   0.0000
  45 H            4.6501     0.7247    -6.1384 H            1    LIG   0.0000
  46 H            1.4813     0.8745    -4.6095 H            1    LIG   0.0000
  47 H            2.4825    -1.7739     1.2617 H            1    LIG   0.0000
  48 H            0.1806    -1.4236    -1.3462 H            1    LIG   0.0000
@<TRIPOS>BOND
   1        1        2 1
   2        2        3 1
   3        3        4 1
   4        4        5 1
   5        5        6 1
   6        6        7 1
   7        7        8 2
   8        8        9 1
   9        9       10 ar
  10       10       11 1
  11       11       12 1
  12       12       13 1
  13       13       14 1
  14       14       15 1
  15       15       16 1
  16       16       17 1
  17       17       12 1
  18       10       18 ar
  19       18       19 ar
  20       19       20 ar
  21       20       21 ar
  22       21        9 ar
  23       21        6 1
  24        5       22 1
  25       22       23 1
  26       22       24 1
  27       24        3 1
  28       24       25 1
  29        3       26 1
  30       22       27 1
  31       24       28 1
  32        1       29 1
  33        2       30 1
  34        2       31 1
  35        5       32 1
  36        7       33 1
  37       11       34 1
  38       12       35 1
  39       13       36 1
  40       13       37 1
  41       14       38 1
  42       14       39 1
  43       15       40 1
  44       15       41 1
  45       16       42 1
  46       16       43 1
  47       17       44 1
  48       17       45 1
  49       19       46 1
  50       23       47 1
  51       25       48 1

@<TRIPOS>MOLECULE
CHEMBL85549
  48   51
SMALL
USER_CHARGES
@<TRIPOS>ATOM
   1 O1           0.1006     1.5750     2.4406 O.3          1    LIG   0.0000
   2 C2          -0.5499     2.1212     1.3026 C.3          1    LIG   0.0000
   3 C3           0.0733     1.5491     0.0394 C.3          1    LIG   0.0000
   4 O4           1.4556     1.8246    -0.0978 O.3          1    LIG   0.0000
   5 C5           2.2010     0.7963     0.5413 C.3          1    LIG   0.0000
   6 N6           3.1890     0.3303    -0.4413 N.pl3        1    LIG   0.0000
   7 C7           4.4138    -0.1795    -0.1284 C.2          1    LIG   0.0000
   8 N8           5.0129    -0.4900    -1.2558 N.2          1    LIG   0.0000
   9 C9           4.1882    -0.1832    -2.3001 C.ar         1    LIG   0.0000
  10 C10          4.3345    -0.3124    -3.6779 C.ar         1    LIG   0.0000
  11 N11          5.5243    -0.8475    -4.1857 N.pl3        1    LIG   0.0000
  12 C12          5.7035    -0.9943    -5.6371 C.3          1    LIG   0.0000
  13 C13          4.7945    -2.0903    -6.1694 C.3          1    LIG   0.0000
  14 C14          4.9781    -2.2346    -7.6715 C.3          1    LIG   0.0000
  15 C15          4.6640    -0.9205    -8.3685 C.3          1    LIG   0.0000
  16 C16          5.5800     0.1693    -7.8345 C.3          1    LIG   0.0000
  17 C17          5.4005     0.3230    -6.3326 C.3          1    LIG   0.0000
  18 N18          3.3480     0.0725    -4.5017 N.ar         1    LIG   0.0000
  19 C19          2.2153     0.5838    -3.9957 C.ar         1    LIG   0.0000
  20 N20          2.0651     0.7062    -2.6665 N.ar         1    LIG   0.0000
  21 C21          3.0208     0.3379    -1.7953 C.ar         1    LIG   0.0000
  22 C22          1.2030    -0.2914     0.8991 C.3          1    LIG   0.0000
  23 O23          1.7119    -1.5945     0.6501 O.3          1    LIG   0.0000
  24 C24          0.0305     0.0380    -0.0005 C.3          1    LIG   0.0000
  25 O25          0.2108    -0.4241    -1.3330 O.3          1    LIG   0.0000
  26 H           -0.4122     1.9105    -0.7567 H            1    LIG   0.0000
  27 H            0.9332    -0.2066     1.8583 H            1    LIG   0.0000
  28 H           -0.8252    -0.3065     0.3856 H            1    LIG   0.0000
  29 H           -0.3093     1.9514     3.2715 H            1    LIG   0.0000
  30 H           -0.4460     3.1158     1.3046 H            1    LIG   0.0000
  31 H           -1.5219     1.8875     1.3301 H            1    LIG   0.0000
  32 H            2.6543     1.1449     1.3616 H            1    LIG   0.0000
  33 H            4.7882    -0.2959     0.7915 H            1    LIG   0.0000
  34 H            6.2523    -1.1299    -3.5610 H            1    LIG   0.0000
  35 H            6.6537    -1.2454    -5.8213 H            1    LIG   0.0000
  36 H            3.8425    -1.8552    -5.9733 H            1    LIG   0.0000
  37 H            5.0228    -2.9556    -5.7233 H            1    LIG   0.0000
  38 H            4.3622    -2.9447    -8.0127 H            1    LIG   0.0000
  39 H            5.9245    -2.4929    -7.8650 H            1    LIG   0.0000
  40 H            3.7116    -0.6702    -8.1942 H            1    LIG   0.0000
  41 H            4.8068    -1.0230    -9.3529 H            1    LIG   0.0000
  42 H            6.5301    -0.0740    -8.0297 H            1    LIG   0.0000
  43 H            5.3586     1.0351    -8.2833 H            1    LIG   0.0000
  44 H            6.0245     1.0275    -5.9946 H            1    LIG   0.0000
  45 H            4.4572     0.5917    -6.1374 H            1    LIG   0.0000
  46 H            1.4813     0.8745    -4.6095 H            1    LIG   0.0000
  47 H            2.4825    -1.7739     1.2617 H            1    LIG   0.0000
  48 H            0.1806    -1.4236    -1.3462 H            1    LIG   0.0000
@<TRIPOS>BOND
   1        1        2 1
   2        2        3 1
   3        3        4 1
   4        4        5 1
   5        5        6 1
   6        6        7 1
   7        7        8 2
   8        8        9 1
   9        9       10 ar
  10       10       11 1
  11       11       12 1
  12       12       13 1
  13       13       14 1
  14       14       15 1
  15       15       16 1
  16       16       17 1
  17       17       12 1
  18       10       18 ar
  19       18       19 ar
  20       19       20 ar
  21       20       21 ar
  22       21        9 ar
  23       21        6 1
  24        5       22 1
  25       22       23 1
  26       22       24 1
  27       24        3 1
  28       24       25 1
  29        3       26 1
  30       22       27 1
  31       24       28 1
  32        1       29 1
  33        2       30 1
  34        2       31 1
  35        5       32 1
  36        7       33 1
  37       11       34 1
  38       12       35 1
  39       13       36 1
  40       13       37 1
  41       14       38 1
  42       14       39 1
  43       15       40 1
  44       15       41 1
  45       16       42 1
  46       16       43 1
  47       17       44 1
  48       17       45 1
  49       19       46 1
  50       23       47 1
  51       25       48 1

@<TRIPOS>MOLECULE
CHEMBL85549
  48   51
SMALL
USER_CHARGES
@<TRIPOS>ATOM
   1 O1           0.1006     1.5750     2.4406 O.3          1    LIG   0.0000
   2 C2          -0.5499     2.1212     1.3026 C.3          1    LIG   0.0000
   3 C3           0.0733     1.5491     0.0394 C.3          1    LIG   0.0000
   4 O4           1.4556     1.8246    -0.0978 O.3          1    LIG   0.0000
   5 C5           2.2010     0.7963     0.5413 C.3          1    LIG   0.0000
   6 N6           3.1890     0.3303    -0.4413 N.pl3        1    LIG   0.0000
   7 C7           4.4138    -0.1795    -0.1284 C.2          1    LIG   0.0000
   8 N8           5.0129    -0.4900    -1.2558 N.2          1    LIG   0.0000
   9 C9           4.1882    -0.1832    -2.3001 C.ar         1    LIG   0.0000
  10 C10          4.3345    -0.3124    -3.6779 C.ar         1    LIG   0.0000
  11 N11          5.5243    -0.8475    -4.1857 N.pl3        1    LIG   0.0000
  12 C12          5.7035    -0.9943    -5.6371 C.3          1    LIG   0.0000
  13 C13          5.8512     0.3715    -6.2879 C.3          1    LIG   0.0000
  14 C14          6.0426     0.2151    -7.7878 C.3          1    LIG   0.0000
  15 C15          7.2738    -0.6291    -8.0758 C.3          1    LIG   0.0000
  16 C16          7.1166    -1.9947    -7.4260 C.3          1    LIG   0.0000
  17 C17          6.9280    -1.8480    -5.9245 C.3          1    LIG   0.0000
  18 N18          3.3480     0.0725    -4.5017 N.ar         1    LIG   0.0000
  19 C19          2.2153     0.5838    -3.9957 C.ar         1    LIG   0.0000
  20 N20          2.0651     0.7062    -2.6665 N.ar         1    LIG   0.0000
  21 C21          3.0208     0.3379    -1.7953 C.ar         1    LIG   0.0000
  22 C22          1.2030    -0.2914     0.8991 C.3          1    LIG   0.0000
  23 O23          1.7119    -1.5945     0.6501 O.3          1    LIG   0.0000
  24 C24          0.0305     0.0380    -0.0005 C.3          1    LIG   0.0000
  25 O25          0.2108    -0.4241    -1.3330 O.3          1    LIG   0.0000
  26 H           -0.4122     1.9105    -0.7567 H            1    LIG   0.0000
  27 H            0.9332    -0.2066     1.8583 H            1    LIG   0.0000
  28 H           -0.8252    -0.3065     0.3856 H            1    LIG   0.0000
  29 H           -0.3093     1.9514     3.2715 H            1    LIG   0.0000
  30 H           -0.4460     3.1158     1.3046 H            1    LIG   0.0000
  31 H           -1.5219     1.8875     1.3301 H            1    LIG   0.0000
  32 H            2.6543     1.1449     1.3616 H            1    LIG   0.0000
  33 H            4.7882    -0.2959     0.7915 H            1    LIG   0.0000
  34 H            6.2523    -1.1299    -3.5610 H            1    LIG   0.0000
  35 H            4.8974    -1.4477    -6.0176 H            1    LIG   0.0000
  36 H            6.6453     0.8391    -5.8998 H            1    LIG   0.0000
  37 H            5.0280     0.9120    -6.1138 H            1    LIG   0.0000
  38 H            6.1571     1.1180    -8.2020 H            1    LIG   0.0000
  39 H            5.2375    -0.2312    -8.1786 H            1    LIG   0.0000
  40 H            8.0835    -0.1747    -7.7046 H            1    LIG   0.0000
  41 H            7.3776    -0.7404    -9.0641 H            1    LIG   0.0000
  42 H            6.3185    -2.4549    -7.8150 H            1    LIG   0.0000
  43 H            7.9355    -2.5404    -7.6036 H            1    LIG   0.0000
  44 H            6.8048    -2.7524    -5.5160 H            1    LIG   0.0000
  45 H            7.7365    -1.4114    -5.5300 H            1    LIG   0.0000
  46 H            1.4813     0.8745    -4.6095 H            1    LIG   0.0000
  47 H            2.4825    -1.7739     1.2617 H            1    LIG   0.0000
  48 H            0.1806    -1.4236    -1.3462 H            1    LIG   0.0000
@<TRIPOS>BOND
   1        1        2 1
   2        2        3 1
   3        3        4 1
   4        4        5 1
   5        5        6 1
   6        6        7 1
   7        7        8 2
   8        8        9 1
   9        9       10 ar
  10       10       11 1
  11       11       12 1
  12       12       13 1
  13       13       14 1
  14       14       15 1
  15       15       16 1
  16       16       17 1
  17       17       12 1
  18       10       18 ar
  19       18       19 ar
  20       19       20 ar
  21       20       21 ar
  22       21        9 ar
  23       21        6 1
  24        5       22 1
  25       22       23 1
  26       22       24 1
  27       24        3 1
  28       24       25 1
  29        3       26 1
  30       22       27 1
  31       24       28 1
  32        1       29 1
  33        2       30 1
  34        2       31 1
  35        5       32 1
  36        7       33 1
  37       11       34 1
  38       12       35 1
  39       13       36 1
  40       13       37 1
  41       14       38 1
  42       14       39 1
  43       15       40 1
  44       15       41 1
  45       16       42 1
  46       16       43 1
  47       17       44 1
  48       17       45 1
  49       19       46 1
  50       23       47 1
  51       25       48 1

@<TRIPOS>MOLECULE
CHEMBL85549
  48   51
SMALL
USER_CHARGES
@<TRIPOS>ATOM
   1 O1           0.1006     1.5750     2.4406 O.3          1    LIG   0.0000
   2 C2          -0.5499     2.1212     1.3026 C.3          1    LIG   0.0000
   3 C3           0.0733     1.5491     0.0394 C.3          1    LIG   0.0000
   4 O4           1.4556     1.8246    -0.0978 O.3          1    LIG   0.0000
   5 C5           2.2010     0.7963     0.5413 C.3          1    LIG   0.0000
   6 N6           3.1890     0.3303    -0.4413 N.pl3        1    LIG   0.0000
   7 C7           4.4138    -0.1795    -0.1284 C.2          1    LIG   0.0000
   8 N8           5.0129    -0.4900    -1.2558 N.2          1    LIG   0.0000
   9 C9           4.1882    -0.1832    -2.3001 C.ar         1    LIG   0.0000
  10 C10          4.3345    -0.3124    -3.6779 C.ar         1    LIG   0.0000
  11 N11          5.5243    -0.8475    -4.1857 N.pl3        1    LIG   0.0000
  12 C12          5.7035    -0.9943    -5.6371 C.3          1    LIG   0.0000
  13 C13          7.0672    -1.5942    -5.9390 C.3          1    LIG   0.0000
  14 C14          7.2460    -1.7502    -7.4405 C.3          1    LIG   0.0000
  15 C15          6.1535    -2.6405    -8.0107 C.3          1    LIG   0.0000
  16 C16          4.7933    -2.0318    -7.7090 C.3          1    LIG   0.0000
  17 C17          4.6042    -1.8752    -6.2086 C.3          1    LIG   0.0000
  18 N18          3.3480     0.0725    -4.5017 N.ar         1    LIG   0.0000
  19 C19          2.2153     0.5838    -3.9957 C.ar         1    LIG   0.0000
  20 N20          2.0651     0.7062    -2.6665 N.ar         1    LIG   0.0000
  21 C21          3.0208     0.3379    -1.7953 C.ar         1    LIG   0.0000
  22 C22          1.2030    -0.2914     0.8991 C.3          1    LIG   0.0000
  23 O23          1.7119    -1.5945     0.6501 O.3          1    LIG   0.0000
  24 C24          0.0305     0.0380    -0.0005 C.3          1    LIG   0.0000
  25 O25          0.2108    -0.4241    -1.3330 O.3          1    LIG   0.0000
  26 H           -0.4122     1.9105    -0.7567 H            1    LIG   0.0000
  27 H            0.9332    -0.2066     1.8583 H            1    LIG   0.0000
  28 H           -0.8252    -0.3065     0.3856 H            1    LIG   0.0000
  29 H           -0.3093     1.9514     3.2715 H            1    LIG   0.0000
  30 H           -0.4460     3.1158     1.3046 H            1    LIG   0.0000
  31 H           -1.5219     1.8875     1.3301 H            1    LIG   0.0000
  32 H            2.6543     1.1449     1.3616 H            1    LIG   0.0000
  33 H            4.7882    -0.2959     0.7915 H            1    LIG   0.0000
  34 H            6.2523    -1.1299    -3.5610 H            1    LIG   0.0000
  35 H            5.6470    -0.0910    -6.0623 H            1    LIG   0.0000
  36 H            7.1385    -2.4909    -5.5021 H            1    LIG   0.0000
  37 H            7.7806    -0.9915    -5.5815 H            1    LIG   0.0000
  38 H            8.1380    -2.1625    -7.6257 H            1    LIG   0.0000
  39 H            7.1982    -0.8503    -7.8739 H            1    LIG   0.0000
  40 H            6.2121    -3.5479    -7.5945 H            1    LIG   0.0000
  41 H            6.2709    -2.7197    -9.0006 H            1    LIG   0.0000
  42 H            4.7301    -1.1339    -8.1447 H            1    LIG   0.0000
  43 H            4.0774    -2.6289    -8.0709 H            1    LIG   0.0000
  44 H            3.7151    -1.4544    -6.0287 H            1    LIG   0.0000
  45 H            4.6411    -2.7751    -5.7742 H            1    LIG   0.0000
  46 H            1.4813     0.8745    -4.6095 H            1    LIG   0.0000
  47 H            2.4825    -1.7739     1.2617 H            1    LIG   0.0000
  48 H            0.1806    -1.4236    -1.3462 H            1    LIG   0.0000
@<TRIPOS>BOND
   1        1        2 1
   2        2        3 1
   3        3        4 1
   4        4        5 1
   5        5        6 1
   6        6        7 1
   7        7        8 2
   8        8        9 1
   9        9       10 ar
  10       10       11 1
  11       11       12 1
  12       12       13 1
  13       13       14 1
  14       14       15 1
  15       15       16 1
  16       16       17 1
  17       17       12 1
  18       10       18 ar
  19       18       19 ar
  20       19       20 ar
  21       20       21 ar
  22       21        9 ar
  23       21        6 1
  24        5       22 1
  25       22       23 1
  26       22       24 1
  27       24        3 1
  28       24       25 1
  29        3       26 1
  30       22       27 1
  31       24       28 1
  32        1       29 1
  33        2       30 1
  34        2       31 1
  35        5       32 1
  36        7       33 1
  37       11       34 1
  38       12       35 1
  39       13       36 1
  40       13       37 1
  41       14       38 1
  42       14       39 1
  43       15       40 1
  44       15       41 1
  45       16       42 1
  46       16       43 1
  47       17       44 1
  48       17       45 1
  49       19       46 1
  50       23       47 1
  51       25       48 1

@<TRIPOS>MOLECULE
CHEMBL85549
  48   51
SMALL
USER_CHARGES
@<TRIPOS>ATOM
   1 O1           0.1006     1.5750     2.4406 O.3          1    LIG   0.0000
   2 C2          -0.5499     2.1212     1.3026 C.3          1    LIG   0.0000
   3 C3           0.0733     1.5491     0.0394 C.3          1    LIG   0.0000
   4 O4           1.4556     1.8246    -0.0978 O.3          1    LIG   0.0000
   5 C5           2.2010     0.7963     0.5413 C.3          1    LIG   0.0000
   6 N6           3.1890     0.3303    -0.4413 N.pl3        1    LIG   0.0000
   7 C7           2.9782    -0.6756    -1.3367 C.2          1    LIG   0.0000
   8 N8           4.0746    -0.8079    -2.0485 N.2          1    LIG   0.0000
   9 C9           4.9983     0.1024    -1.6209 C.ar         1    LIG   0.0000
  10 C10          6.2988     0.3800    -2.0311 C.ar         1    LIG   0.0000
  11 N11          6.8542    -0.3687    -3.0756 N.pl3        1    LIG   0.0000
  12 C12          8.2256    -0.0951    -3.5273 C.3          1    LIG   0.0000
  13 C13          8.2875     1.2452    -4.2422 C.3          1    LIG   0.0000
  14 C14          9.7065     1.5325    -4.7060 C.3          1    LIG   0.0000
  15 C15         10.1720     0.4236    -5.6359 C.3          1    LIG   0.0000
  16 C16         10.1199    -0.9181    -4.9228 C.3          1    LIG   0.0000
  17 C17          8.7029    -1.2033    -4.4518 C.3          1    LIG   0.0000
  18 N18          7.0047     1.3502    -1.4308 N.ar         1    LIG   0.0000
  19 C19          6.4550     2.0563    -0.4309 C.ar         1    LIG   0.0000
  20 N20          5.1983     1.7974    -0.0336 N.ar         1    LIG   0.0000
  21 C21          4.4462     0.8366    -0.5985 C.ar         1    LIG   0.0000
  22 C22          1.2030    -0.2914     0.8991 C.3          1    LIG   0.0000
  23 O23          1.7119    -1.5945     0.6501 O.3          1    LIG   0.0000
  24 C24          0.0305     0.0380    -0.0005 C.3          1    LIG   0.0000
  25 O25          0.2108    -0.4241    -1.3330 O.3          1    LIG   0.0000
  26 H           -0.4122     1.9105    -0.7567 H            1    LIG   0.0000
  27 H            0.9332    -0.2066     1.8583 H            1    LIG   0.0000
  28 H           -0.8252    -0.3065     0.3856 H            1    LIG   0.0000
  29 H           -0.3093     1.9514     3.2715 H            1    LIG   0.0000
  30 H           -0.4460     3.1158     1.3046 H            1    LIG   0.0000
  31 H           -1.5219     1.8875     1.3301 H            1    LIG   0.0000
  32 H            2.6543     1.1449     1.3616 H            1    LIG   0.0000
  33 H            2.1416    -1.2146    -1.4341 H            1    LIG   0.0000
  34 H            6.3177    -1.0897    -3.5143 H            1    LIG   0.0000
  35 H            8.8265    -0.0615    -2.7287 H            1    LIG   0.0000
  36 H            7.9930     1.9668    -3.6157 H            1    LIG   0.0000
  37 H            7.6793     1.2239    -5.0357 H            1    LIG   0.0000
  38 H           10.3133     1.5784    -3.9125 H            1    LIG   0.0000
  39 H            9.7274     2.4059    -5.1926 H            1    LIG   0.0000
  40 H           11.1116     0.6077    -5.9246 H            1    LIG   0.0000
  41 H            9.5764     0.3941    -6.4386 H            1    LIG   0.0000
  42 H           10.4110    -1.6388    -5.5519 H            1    LIG   0.0000
  43 H           10.7332    -0.8972    -4.1332 H            1    LIG   0.0000
  44 H            8.0956    -1.2570    -5.2445 H            1    LIG   0.0000
  45 H            8.6869    -2.0739    -3.9600 H            1    LIG   0.0000
  46 H            6.9822     2.7769     0.0195 H            1    LIG   0.0000
  47 H            2.4825    -1.7739     1.2617 H            1    LIG   0.0000
  48 H            0.1806    -1.4236    -1.3462 H            1    LIG   0.0000
@<TRIPOS>BOND
   1        1        2 1
   2        2        3 1
   3        3        4 1
   4        4        5 1
   5        5        6 1
   6        6        7 1
   7        7        8 2
   8        8        9 1
   9        9       10 ar
  10       10       11 1
  11       11       12 1
  12       12       13 1
  13       13       14 1
  14       14       15 1
  15       15       16 1
  16       16       17 1
  17       17       12 1
  18       10       18 ar
  19       18       19 ar
  20       19       20 ar
  21       20       21 ar
  22       21        9 ar
  23       21        6 1
  24        5       22 1
  25       22       23 1
  26       22       24 1
  27       24        3 1
  28       24       25 1
  29        3       26 1
  30       22       27 1
  31       24       28 1
  32        1       29 1
  33        2       30 1
  34        2       31 1
  35        5       32 1
  36        7       33 1
  37       11       34 1
  38       12       35 1
  39       13       36 1
  40       13       37 1
  41       14       38 1
  42       14       39 1
  43       15       40 1
  44       15       41 1
  45       16       42 1
  46       16       43 1
  47       17       44 1
  48       17       45 1
  49       19       46 1
  50       23       47 1
  51       25       48 1

@<TRIPOS>MOLECULE
CHEMBL85549
  48   51
SMALL
USER_CHARGES
@<TRIPOS>ATOM
   1 O1           0.1006     1.5750     2.4406 O.3          1    LIG   0.0000
   2 C2          -0.5499     2.1212     1.3026 C.3          1    LIG   0.0000
   3 C3           0.0733     1.5491     0.0394 C.3          1    LIG   0.0000
   4 O4           1.4556     1.8246    -0.0978 O.3          1    LIG   0.0000
   5 C5           2.2010     0.7963     0.5413 C.3          1    LIG   0.0000
   6 N6           3.1890     0.3303    -0.4413 N.pl3        1    LIG   0.0000
   7 C7           2.9782    -0.6756    -1.3367 C.2          1    LIG   0.0000
   8 N8           4.0746    -0.8079    -2.0485 N.2          1    LIG   0.0000
   9 C9           4.9983     0.1024    -1.6209 C.ar         1    LIG   0.0000
  10 C10          6.2988     0.3800    -2.0311 C.ar         1    LIG   0.0000
  11 N11          6.8542    -0.3687    -3.0756 N.pl3        1    LIG   0.0000
  12 C12          8.2256    -0.0951    -3.5273 C.3          1    LIG   0.0000
  13 C13          9.2260    -0.5319    -2.4693 C.3          1    LIG   0.0000
  14 C14         10.6457    -0.2542    -2.9368 C.3          1    LIG   0.0000
  15 C15         10.8055     1.2299    -3.2243 C.3          1    LIG   0.0000
  16 C16          9.8126     1.6700    -4.2881 C.3          1    LIG   0.0000
  17 C17          8.3927     1.3862    -3.8251 C.3          1    LIG   0.0000
  18 N18          7.0047     1.3502    -1.4308 N.ar         1    LIG   0.0000
  19 C19          6.4550     2.0563    -0.4309 C.ar         1    LIG   0.0000
  20 N20          5.1983     1.7974    -0.0336 N.ar         1    LIG   0.0000
  21 C21          4.4462     0.8366    -0.5985 C.ar         1    LIG   0.0000
  22 C22          1.2030    -0.2914     0.8991 C.3          1    LIG   0.0000
  23 O23          1.7119    -1.5945     0.6501 O.3          1    LIG   0.0000
  24 C24          0.0305     0.0380    -0.0005 C.3          1    LIG   0.0000
  25 O25          0.2108    -0.4241    -1.3330 O.3          1    LIG   0.0000
  26 H           -0.4122     1.9105    -0.7567 H            1    LIG   0.0000
  27 H            0.9332    -0.2066     1.8583 H            1    LIG   0.0000
  28 H           -0.8252    -0.3065     0.3856 H            1    LIG   0.0000
  29 H           -0.3093     1.9514     3.2715 H            1    LIG   0.0000
  30 H           -0.4460     3.1158     1.3046 H            1    LIG   0.0000
  31 H           -1.5219     1.8875     1.3301 H            1    LIG   0.0000
  32 H            2.6543     1.1449     1.3616 H            1    LIG   0.0000
  33 H            2.1416    -1.2146    -1.4341 H            1    LIG   0.0000
  34 H            6.3177    -1.0897    -3.5143 H            1    LIG   0.0000
  35 H            8.3973    -0.6128    -4.3654 H            1    LIG   0.0000
  36 H            9.1203    -1.5118    -2.3003 H            1    LIG   0.0000
  37 H            9.0529    -0.0272    -1.6236 H            1    LIG   0.0000
  38 H           10.8303    -0.7765    -3.7694 H            1    LIG   0.0000
  39 H           11.2907    -0.5265    -2.2227 H            1    LIG   0.0000
  40 H           11.7354     1.4052    -3.5479 H            1    LIG   0.0000
  41 H           10.6415     1.7483    -2.3850 H            1    LIG   0.0000
  42 H            9.9171     2.6508    -4.4529 H            1    LIG   0.0000
  43 H            9.9910     1.1689    -5.1349 H            1    LIG   0.0000
  44 H            8.2035     1.9133    -2.9966 H            1    LIG   0.0000
  45 H            7.7509     1.6533    -4.5439 H            1    LIG   0.0000
  46 H            6.9822     2.7769     0.0195 H            1    LIG   0.0000
  47 H            2.4825    -1.7739     1.2617 H            1    LIG   0.0000
  48 H            0.1806    -1.4236    -1.3462 H            1    LIG   0.0000
@<TRIPOS>BOND
   1        1        2 1
   2        2        3 1
   3        3        4 1
   4        4        5 1
   5        5        6 1
   6        6        7 1
   7        7        8 2
   8        8        9 1
   9        9       10 ar
  10       10       11 1
  11       11       12 1
  12       12       13 1
  13       13       14 1
  14       14       15 1
  15       15       16 1
  16       16       17 1
  17       17       12 1
  18       10       18 ar
  19       18       19 ar
  20       19       20 ar
  21       20       21 ar
  22       21        9 ar
  23       21        6 1
  24        5       22 1
  25       22       23 1
  26       22       24 1
  27       24        3 1
  28       24       25 1
  29        3       26 1
  30       22       27 1
  31       24       28 1
  32        1       29 1
  33        2       30 1
  34        2       31 1
  35        5       32 1
  36        7       33 1
  37       11       34 1
  38       12       35 1
  39       13       36 1
  40       13       37 1
  41       14       38 1
  42       14       39 1
  43       15       40 1
  44       15       41 1
  45       16       42 1
  46       16       43 1
  47       17       44 1
  48       17       45 1
  49       19       46 1
  50       23       47 1
  51       25       48 1

@<TRIPOS>MOLECULE
CHEMBL85549
  48   51
SMALL
USER_CHARGES
@<TRIPOS>ATOM
   1 O1           0.1006     1.5750     2.4406 O.3          1    LIG   0.0000
   2 C2          -0.5499     2.1212     1.3026 C.3          1    LIG   0.0000
   3 C3           0.0733     1.5491     0.0394 C.3          1    LIG   0.0000
   4 O4           1.4556     1.8246    -0.0978 O.3          1    LIG   0.0000
   5 C5           2.2010     0.7963     0.5413 C.3          1    LIG   0.0000
   6 N6           3.1890     0.3303    -0.4413 N.pl3        1    LIG   0.0000
   7 C7           2.9782    -0.6756    -1.3367 C.2          1    LIG   0.0000
   8 N8           4.0746    -0.8079    -2.0485 N.2          1    LIG   0.0000
   9 C9           4.9983     0.1024    -1.6209 C.ar         1    LIG   0.0000
  10 C10          6.2988     0.3800    -2.0311 C.ar         1    LIG   0.0000
  11 N11          6.8542    -0.3687    -3.0756 N.pl3        1    LIG   0.0000
  12 C12          8.2256    -0.0951    -3.5273 C.3          1    LIG   0.0000
  13 C13          8.6024    -1.0307    -4.6647 C.3          1    LIG   0.0000
  14 C14         10.0191    -0.7460    -5.1369 C.3          1    LIG   0.0000
  15 C15         10.9864    -0.9193    -3.9770 C.3          1    LIG   0.0000
  16 C16         10.6187     0.0206    -2.8400 C.3          1    LIG   0.0000
  17 C17          9.1995    -0.2581    -2.3717 C.3          1    LIG   0.0000
  18 N18          7.0047     1.3502    -1.4308 N.ar         1    LIG   0.0000
  19 C19          6.4550     2.0563    -0.4309 C.ar         1    LIG   0.0000
  20 N20          5.1983     1.7974    -0.0336 N.ar         1    LIG   0.0000
  21 C21          4.4462     0.8366    -0.5985 C.ar         1    LIG   0.0000
  22 C22          1.2030    -0.2914     0.8991 C.3          1    LIG   0.0000
  23 O23          1.7119    -1.5945     0.6501 O.3          1    LIG   0.0000
  24 C24          0.0305     0.0380    -0.0005 C.3          1    LIG   0.0000
  25 O25          0.2108    -0.4241    -1.3330 O.3          1    LIG   0.0000
  26 H           -0.4122     1.9105    -0.7567 H            1    LIG   0.0000
  27 H            0.9332    -0.2066     1.8583 H            1    LIG   0.0000
  28 H           -0.8252    -0.3065     0.3856 H            1    LIG   0.0000
  29 H           -0.3093     1.9514     3.2715 H            1    LIG   0.0000
  30 H           -0.4460     3.1158     1.3046 H            1    LIG   0.0000
  31 H           -1.5219     1.8875     1.3301 H            1    LIG   0.0000
  32 H            2.6543     1.1449     1.3616 H            1    LIG   0.0000
  33 H            2.1416    -1.2146    -1.4341 H            1    LIG   0.0000
  34 H            6.3177    -1.0897    -3.5143 H            1    LIG   0.0000
  35 H            8.2733     0.8477    -3.8574 H            1    LIG   0.0000
  36 H            7.9680    -0.8965    -5.4260 H            1    LIG   0.0000
  37 H            8.5451    -1.9769    -4.3460 H            1    LIG   0.0000
  38 H           10.0739     0.1921    -5.4789 H            1    LIG   0.0000
  39 H           10.2602    -1.3825    -5.8695 H            1    LIG   0.0000
  40 H           11.9145    -0.7142    -4.2878 H            1    LIG   0.0000
  41 H           10.9451    -1.8638    -3.6511 H            1    LIG   0.0000
  42 H           11.2517    -0.1179    -2.0783 H            1    LIG   0.0000
  43 H           10.6824     0.9663    -3.1586 H            1    LIG   0.0000
  44 H            9.1443    -1.1935    -2.0223 H            1    LIG   0.0000
  45 H            8.9594     0.3843    -1.6439 H            1    LIG   0.0000
  46 H            6.9822     2.7769     0.0195 H            1    LIG   0.0000
  47 H            2.4825    -1.7739     1.2617 H            1    LIG   0.0000
  48 H            0.1806    -1.4236    -1.3462 H            1    LIG   0.0000
@<TRIPOS>BOND
   1        1        2 1
   2        2        3 1
   3        3        4 1
   4        4        5 1
   5        5        6 1
   6        6        7 1
   7        7        8 2
   8        8        9 1
   9        9       10 ar
  10       10       11 1
  11       11       12 1
  12       12       13 1
  13       13       14 1
  14       14       15 1
  15       15       16 1
  16       16       17 1
  17       17       12 1
  18       10       18 ar
  19       18       19 ar
  20       19       20 ar
  21       20       21 ar
  22       21        9 ar
  23       21        6 1
  24        5       22 1
  25       22       23 1
  26       22       24 1
  27       24        3 1
  28       24       25 1
  29        3       26 1
  30       22       27 1
  31       24       28 1
  32        1       29 1
  33        2       30 1
  34        2       31 1
  35        5       32 1
  36        7       33 1
  37       11       34 1
  38       12       35 1
  39       13       36 1
  40       13       37 1
  41       14       38 1
  42       14       39 1
  43       15       40 1
  44       15       41 1
  45       16       42 1
  46       16       43 1
  47       17       44 1
  48       17       45 1
  49       19       46 1
  50       23       47 1
  51       25       48 1

@<TRIPOS>MOLECULE
CHEMBL85549
  48   51
SMALL
USER_CHARGES
@<TRIPOS>ATOM
   1 O1           0.1006     1.5750     2.4406 O.3          1    LIG   0.0000
   2 C2          -0.5499     2.1212     1.3026 C.3          1    LIG   0.0000
   3 C3           0.0733     1.5491     0.0394 C.3          1    LIG   0.0000
   4 O4           1.4556     1.8246    -0.0978 O.3          1    LIG   0.0000
   5 C5           2.2010     0.7963     0.5413 C.3          1    LIG   0.0000
   6 N6           3.1890     0.3303    -0.4413 N.pl3        1    LIG   0.0000
   7 C7           2.9782    -0.6756    -1.3367 C.2          1    LIG   0.0000
   8 N8           4.0746    -0.8079    -2.0485 N.2          1    LIG   0.0000
   9 C9           4.9983     0.1024    -1.6209 C.ar         1    LIG   0.0000
  10 C10          6.2988     0.3800    -2.0311 C.ar         1    LIG   0.0000
  11 N11          6.8542    -0.3687    -3.0756 N.pl3        1    LIG   0.0000
  12 C12          8.2258    -0.0950    -3.5274 C.3          1    LIG   0.0000
  13 C13          8.2848     1.2455    -4.2417 C.3          1    LIG   0.0000
  14 C14          9.7059     1.5276    -4.7017 C.3          1    LIG   0.0000
  15 C15         10.6522     1.5354    -3.5119 C.3          1    LIG   0.0000
  16 C16         10.5912     0.1903    -2.8057 C.3          1    LIG   0.0000
  17 C17          9.1735    -0.0988    -2.3388 C.3          1    LIG   0.0000
  18 N18          7.0047     1.3502    -1.4308 N.ar         1    LIG   0.0000
  19 C19          6.4550     2.0563    -0.4309 C.ar         1    LIG   0.0000
  20 N20          5.1983     1.7974    -0.0336 N.ar         1    LIG   0.0000
  21 C21          4.4462     0.8366    -0.5985 C.ar         1    LIG   0.0000
  22 C22          1.2030    -0.2914     0.8991 C.3          1    LIG   0.0000
  23 O23          1.7119    -1.5945     0.6501 O.3          1    LIG   0.0000
  24 C24          0.0305     0.0380    -0.0005 C.3          1    LIG   0.0000
  25 O25          0.2108    -0.4241    -1.3330 O.3          1    LIG   0.0000
  26 H           -0.4122     1.9105    -0.7567 H            1    LIG   0.0000
  27 H            0.9332    -0.2066     1.8583 H            1    LIG   0.0000
  28 H           -0.8252    -0.3065     0.3856 H            1    LIG   0.0000
  29 H           -0.3093     1.9514     3.2715 H            1    LIG   0.0000
  30 H           -0.4460     3.1158     1.3046 H            1    LIG   0.0000
  31 H           -1.5219     1.8875     1.3301 H            1    LIG   0.0000
  32 H            2.6543     1.1449     1.3616 H            1    LIG   0.0000
  33 H            2.1416    -1.2146    -1.4341 H            1    LIG   0.0000
  34 H            6.3177    -1.0897    -3.5143 H            1    LIG   0.0000
  35 H            8.5049    -0.8131    -4.1650 H            1    LIG   0.0000
  36 H            7.9899     1.9675    -3.6159 H            1    LIG   0.0000
  37 H            7.6777     1.2244    -5.0361 H            1    LIG   0.0000
  38 H            9.7358     2.4194    -5.1532 H            1    LIG   0.0000
  39 H            9.9914     0.8181    -5.3460 H            1    LIG   0.0000
  40 H           10.3818     2.2582    -2.8759 H            1    LIG   0.0000
  41 H           11.5855     1.7029    -3.8296 H            1    LIG   0.0000
  42 H           10.8827    -0.5274    -3.4380 H            1    LIG   0.0000
  43 H           11.2022     0.2056    -2.0142 H            1    LIG   0.0000
  44 H            9.1465    -0.9951    -1.8962 H            1    LIG   0.0000
  45 H            8.8896     0.6038    -1.6863 H            1    LIG   0.0000
  46 H            6.9822     2.7769     0.0195 H            1    LIG   0.0000
  47 H            2.4825    -1.7739     1.2617 H            1    LIG   0.0000
  48 H            0.1806    -1.4236    -1.3462 H            1    LIG   0.0000
@<TRIPOS>BOND
   1        1        2 1
   2        2        3 1
   3        3        4 1
   4        4        5 1
   5        5        6 1
   6        6        7 1
   7        7        8 2
   8        8        9 1
   9        9       10 ar
  10       10       11 1
  11       11       12 1
  12       12       13 1
  13       13       14 1
  14       14       15 1
  15       15       16 1
  16       16       17 1
  17       17       12 1
  18       10       18 ar
  19       18       19 ar
  20       19       20 ar
  21       20       21 ar
  22       21        9 ar
  23       21        6 1
  24        5       22 1
  25       22       23 1
  26       22       24 1
  27       24        3 1
  28       24       25 1
  29        3       26 1
  30       22       27 1
  31       24       28 1
  32        1       29 1
  33        2       30 1
  34        2       31 1
  35        5       32 1
  36        7       33 1
  37       11       34 1
  38       12       35 1
  39       13       36 1
  40       13       37 1
  41       14       38 1
  42       14       39 1
  43       15       40 1
  44       15       41 1
  45       16       42 1
  46       16       43 1
  47       17       44 1
  48       17       45 1
  49       19       46 1
  50       23       47 1
  51       25       48 1

@<TRIPOS>MOLECULE
CHEMBL85549
  48   51
SMALL
USER_CHARGES
@<TRIPOS>ATOM
   1 O1           0.1006     1.5750     2.4406 O.3          1    LIG   0.0000
   2 C2          -0.5499     2.1212     1.3026 C.3          1    LIG   0.0000
   3 C3           0.0733     1.5491     0.0394 C.3          1    LIG   0.0000
   4 O4           1.4556     1.8246    -0.0978 O.3          1    LIG   0.0000
   5 C5           2.2010     0.7963     0.5413 C.3          1    LIG   0.0000
   6 N6           3.1890     0.3303    -0.4413 N.pl3        1    LIG   0.0000
   7 C7           2.9782    -0.6756    -1.3367 C.2          1    LIG   0.0000
   8 N8           4.0746    -0.8079    -2.0485 N.2          1    LIG   0.0000
   9 C9           4.9983     0.1024    -1.6209 C.ar         1    LIG   0.0000
  10 C10          6.2988     0.3800    -2.0311 C.ar         1    LIG   0.0000
  11 N11          6.8542    -0.3687    -3.0756 N.pl3        1    LIG   0.0000
  12 C12          8.2258    -0.0950    -3.5274 C.3          1    LIG   0.0000
  13 C13          9.2239    -0.5327    -2.4678 C.3          1    LIG   0.0000
  14 C14         10.6412    -0.2539    -2.9414 C.3          1    LIG   0.0000
  15 C15         10.9152    -0.9900    -4.2431 C.3          1    LIG   0.0000
  16 C16          9.9163    -0.5436    -5.2990 C.3          1    LIG   0.0000
  17 C17          8.4955    -0.8220    -4.8350 C.3          1    LIG   0.0000
  18 N18          7.0047     1.3502    -1.4308 N.ar         1    LIG   0.0000
  19 C19          6.4550     2.0563    -0.4309 C.ar         1    LIG   0.0000
  20 N20          5.1983     1.7974    -0.0336 N.ar         1    LIG   0.0000
  21 C21          4.4462     0.8366    -0.5985 C.ar         1    LIG   0.0000
  22 C22          1.2030    -0.2914     0.8991 C.3          1    LIG   0.0000
  23 O23          1.7119    -1.5945     0.6501 O.3          1    LIG   0.0000
  24 C24          0.0305     0.0380    -0.0005 C.3          1    LIG   0.0000
  25 O25          0.2108    -0.4241    -1.3330 O.3          1    LIG   0.0000
  26 H           -0.4122     1.9105    -0.7567 H            1    LIG   0.0000
  27 H            0.9332    -0.2066     1.8583 H            1    LIG   0.0000
  28 H           -0.8252    -0.3065     0.3856 H            1    LIG   0.0000
  29 H           -0.3093     1.9514     3.2715 H            1    LIG   0.0000
  30 H           -0.4460     3.1158     1.3046 H            1    LIG   0.0000
  31 H           -1.5219     1.8875     1.3301 H            1    LIG   0.0000
  32 H            2.6543     1.1449     1.3616 H            1    LIG   0.0000
  33 H            2.1416    -1.2146    -1.4341 H            1    LIG   0.0000
  34 H            6.3177    -1.0897    -3.5143 H            1    LIG   0.0000
  35 H            8.3257     0.8884    -3.6783 H            1    LIG   0.0000
  36 H            9.1183    -1.5125    -2.2980 H            1    LIG   0.0000
  37 H            9.0520    -0.0274    -1.6221 H            1    LIG   0.0000
  38 H           11.2888    -0.5627    -2.2449 H            1    LIG   0.0000
  39 H           10.7529     0.7290    -3.0881 H            1    LIG   0.0000
  40 H           10.8250    -1.9747    -4.0944 H            1    LIG   0.0000
  41 H           11.8430    -0.7834    -4.5538 H            1    LIG   0.0000
  42 H           10.0240     0.4374    -5.4607 H            1    LIG   0.0000
  43 H           10.0894    -1.0424    -6.1482 H            1    LIG   0.0000
  44 H            7.8513    -0.5034    -5.5303 H            1    LIG   0.0000
  45 H            8.3784    -1.8055    -4.6977 H            1    LIG   0.0000
  46 H            6.9822     2.7769     0.0195 H            1    LIG   0.0000
  47 H            2.4825    -1.7739     1.2617 H            1    LIG   0.0000
  48 H            0.1806    -1.4236    -1.3462 H            1    LIG   0.0000
@<TRIPOS>BOND
   1        1        2 1
   2        2        3 1
   3        3        4 1
   4        4        5 1
   5        5        6 1
   6        6        7 1
   7        7        8 2
   8        8        9 1
   9        9       10 ar
  10       10       11 1
  11       11       12 1
  12       12       13 1
  13       13       14 1
  14       14       15 1
  15       15       16 1
  16       16       17 1
  17       17       12 1
  18       10       18 ar
  19       18       19 ar
  20       19       20 ar
  21       20       21 ar
  22       21        9 ar
  23       21        6 1
  24        5       22 1
  25       22       23 1
  26       22       24 1
  27       24        3 1
  28       24       25 1
  29        3       26 1
  30       22       27 1
  31       24       28 1
  32        1       29 1
  33        2       30 1
  34        2       31 1
  35        5       32 1
  36        7       33 1
  37       11       34 1
  38       12       35 1
  39       13       36 1
  40       13       37 1
  41       14       38 1
  42       14       39 1
  43       15       40 1
  44       15       41 1
  45       16       42 1
  46       16       43 1
  47       17       44 1
  48       17       45 1
  49       19       46 1
  50       23       47 1
  51       25       48 1

@<TRIPOS>MOLECULE
CHEMBL85549
  48   51
SMALL
USER_CHARGES
@<TRIPOS>ATOM
   1 O1           0.1006     1.5750     2.4406 O.3          1    LIG   0.0000
   2 C2          -0.5499     2.1212     1.3026 C.3          1    LIG   0.0000
   3 C3           0.0733     1.5491     0.0394 C.3          1    LIG   0.0000
   4 O4           1.4556     1.8246    -0.0978 O.3          1    LIG   0.0000
   5 C5           2.2010     0.7963     0.5413 C.3          1    LIG   0.0000
   6 N6           3.1890     0.3303    -0.4413 N.pl3        1    LIG   0.0000
   7 C7           2.9782    -0.6756    -1.3367 C.2          1    LIG   0.0000
   8 N8           4.0746    -0.8079    -2.0485 N.2          1    LIG   0.0000
   9 C9           4.9983     0.1024    -1.6209 C.ar         1    LIG   0.0000
  10 C10          6.2988     0.3800    -2.0311 C.ar         1    LIG   0.0000
  11 N11          6.8542    -0.3687    -3.0756 N.pl3        1    LIG   0.0000
  12 C12          8.2258    -0.0950    -3.5274 C.3          1    LIG   0.0000
  13 C13          8.5999    -1.0319    -4.6645 C.3          1    LIG   0.0000
  14 C14         10.0165    -0.7414    -5.1331 C.3          1    LIG   0.0000
  15 C15         10.1321     0.7023    -5.5953 C.3          1    LIG   0.0000
  16 C16          9.7612     1.6329    -4.4516 C.3          1    LIG   0.0000
  17 C17          8.3439     1.3518    -3.9787 C.3          1    LIG   0.0000
  18 N18          7.0047     1.3502    -1.4308 N.ar         1    LIG   0.0000
  19 C19          6.4550     2.0563    -0.4309 C.ar         1    LIG   0.0000
  20 N20          5.1983     1.7974    -0.0336 N.ar         1    LIG   0.0000
  21 C21          4.4462     0.8366    -0.5985 C.ar         1    LIG   0.0000
  22 C22          1.2030    -0.2914     0.8991 C.3          1    LIG   0.0000
  23 O23          1.7119    -1.5945     0.6501 O.3          1    LIG   0.0000
  24 C24          0.0305     0.0380    -0.0005 C.3          1    LIG   0.0000
  25 O25          0.2108    -0.4241    -1.3330 O.3          1    LIG   0.0000
  26 H           -0.4122     1.9105    -0.7567 H            1    LIG   0.0000
  27 H            0.9332    -0.2066     1.8583 H            1    LIG   0.0000
  28 H           -0.8252    -0.3065     0.3856 H            1    LIG   0.0000
  29 H           -0.3093     1.9514     3.2715 H            1    LIG   0.0000
  30 H           -0.4460     3.1158     1.3046 H            1    LIG   0.0000
  31 H           -1.5219     1.8875     1.3301 H            1    LIG   0.0000
  32 H            2.6543     1.1449     1.3616 H            1    LIG   0.0000
  33 H            2.1416    -1.2146    -1.4341 H            1    LIG   0.0000
  34 H            6.3177    -1.0897    -3.5143 H            1    LIG   0.0000
  35 H            8.8535    -0.2473    -2.7640 H            1    LIG   0.0000
  36 H            7.9654    -0.8984    -5.4259 H            1    LIG   0.0000
  37 H            8.5440    -1.9781    -4.3460 H            1    LIG   0.0000
  38 H           10.2444    -1.3506    -5.8927 H            1    LIG   0.0000
  39 H           10.6527    -0.8982    -4.3777 H            1    LIG   0.0000
  40 H            9.5123     0.8564    -6.3647 H            1    LIG   0.0000
  41 H           11.0722     0.8858    -5.8827 H            1    LIG   0.0000
  42 H           10.3962     1.4913    -3.6922 H            1    LIG   0.0000
  43 H            9.8222     2.5806    -4.7649 H            1    LIG   0.0000
  44 H            8.1237     1.9567    -3.2134 H            1    LIG   0.0000
  45 H            7.7047     1.5180    -4.7296 H            1    LIG   0.0000
  46 H            6.9822     2.7769     0.0195 H            1    LIG   0.0000
  47 H            2.4825    -1.7739     1.2617 H            1    LIG   0.0000
  48 H            0.1806    -1.4236    -1.3462 H            1    LIG   0.0000
@<TRIPOS>BOND
   1        1        2 1
   2        2        3 1
   3        3        4 1
   4        4        5 1
   5        5        6 1
   6        6        7 1
   7        7        8 2
   8        8        9 1
   9        9       10 ar
  10       10       11 1
  11       11       12 1
  12       12       13 1
  13       13       14 1
  14       14       15 1
  15       15       16 1
  16       16       17 1
  17       17       12 1
  18       10       18 ar
  19       18       19 ar
  20       19       20 ar
  21       20       21 ar
  22       21        9 ar
  23       21        6 1
  24        5       22 1
  25       22       23 1
  26       22       24 1
  27       24        3 1
  28       24       25 1
  29        3       26 1
  30       22       27 1
  31       24       28 1
  32        1       29 1
  33        2       30 1
  34        2       31 1
  35        5       32 1
  36        7       33 1
  37       11       34 1
  38       12       35 1
  39       13       36 1
  40       13       37 1
  41       14       38 1
  42       14       39 1
  43       15       40 1
  44       15       41 1
  45       16       42 1
  46       16       43 1
  47       17       44 1
  48       17       45 1
  49       19       46 1
  50       23       47 1
  51       25       48 1

@<TRIPOS>MOLECULE
CHEMBL85549
  48   51
SMALL
USER_CHARGES
@<TRIPOS>ATOM
   1 O1           0.1006     1.5750     2.4406 O.3          1    LIG   0.0000
   2 C2          -0.5499     2.1212     1.3026 C.3          1    LIG   0.0000
   3 C3           0.0733     1.5491     0.0394 C.3          1    LIG   0.0000
   4 O4           1.4556     1.8246    -0.0978 O.3          1    LIG   0.0000
   5 C5           2.2010     0.7963     0.5413 C.3          1    LIG   0.0000
   6 N6           3.1890     0.3303    -0.4413 N.pl3        1    LIG   0.0000
   7 C7           3.3221     0.8272    -1.7036 C.2          1    LIG   0.0000
   8 N8           4.3035     0.1746    -2.2843 N.2          1    LIG   0.0000
   9 C9           4.8079    -0.7455    -1.4103 C.ar         1    LIG   0.0000
  10 C10          5.8369    -1.6757    -1.5206 C.ar         1    LIG   0.0000
  11 N11          6.5480    -1.7601    -2.7236 N.pl3        1    LIG   0.0000
  12 C12          7.6392    -2.7342    -2.8654 C.3          1    LIG   0.0000
  13 C13          8.8259    -2.3249    -2.0078 C.3          1    LIG   0.0000
  14 C14          9.9541    -3.3340    -2.1493 C.3          1    LIG   0.0000
  15 C15         10.3726    -3.4281    -3.6077 C.3          1    LIG   0.0000
  16 C16          9.1910    -3.8454    -4.4686 C.3          1    LIG   0.0000
  17 C17          8.0592    -2.8410    -4.3224 C.3          1    LIG   0.0000
  18 N18          6.1377    -2.4771    -0.4875 N.ar         1    LIG   0.0000
  19 C19          5.4440    -2.3816     0.6571 C.ar         1    LIG   0.0000
  20 N20          4.4532    -1.4821     0.7724 N.ar         1    LIG   0.0000
  21 C21          4.1086    -0.6553    -0.2304 C.ar         1    LIG   0.0000
  22 C22          1.2030    -0.2914     0.8991 C.3          1    LIG   0.0000
  23 O23          1.7119    -1.5945     0.6501 O.3          1    LIG   0.0000
  24 C24          0.0305     0.0380    -0.0005 C.3          1    LIG   0.0000
  25 O25          0.2108    -0.4241    -1.3330 O.3          1    LIG   0.0000
  26 H           -0.4122     1.9105    -0.7567 H            1    LIG   0.0000
  27 H            0.9332    -0.2066     1.8583 H            1    LIG   0.0000
  28 H           -0.8252    -0.3065     0.3856 H            1    LIG   0.0000
  29 H           -0.3093     1.9514     3.2715 H            1    LIG   0.0000
  30 H           -0.4460     3.1158     1.3046 H            1    LIG   0.0000
  31 H           -1.5219     1.8875     1.3301 H            1    LIG   0.0000
  32 H            2.6543     1.1449     1.3616 H            1    LIG   0.0000
  33 H            2.7730     1.5558    -2.1130 H            1    LIG   0.0000
  34 H            6.3134    -1.1575    -3.4864 H            1    LIG   0.0000
  35 H            7.3138    -3.6284    -2.5582 H            1    LIG   0.0000
  36 H            8.5410    -2.2810    -1.0503 H            1    LIG   0.0000
  37 H            9.1496    -1.4253    -2.3009 H            1    LIG   0.0000
  38 H            9.6409    -4.2300    -1.8342 H            1    LIG   0.0000
  39 H           10.7345    -3.0406    -1.5971 H            1    LIG   0.0000
  40 H           11.1027    -4.1054    -3.6985 H            1    LIG   0.0000
  41 H           10.7053    -2.5362    -3.9138 H            1    LIG   0.0000
  42 H            9.4768    -3.8850    -5.4261 H            1    LIG   0.0000
  43 H            8.8723    -4.7477    -4.1783 H            1    LIG   0.0000
  44 H            8.3679    -1.9459    -4.6440 H            1    LIG   0.0000
  45 H            7.2783    -3.1409    -4.8704 H            1    LIG   0.0000
  46 H            5.6653    -2.9814     1.4261 H            1    LIG   0.0000
  47 H            2.4825    -1.7739     1.2617 H            1    LIG   0.0000
  48 H            0.1806    -1.4236    -1.3462 H            1    LIG   0.0000
@<TRIPOS>BOND
   1        1        2 1
   2        2        3 1
   3        3        4 1
   4        4        5 1
   5        5        6 1
   6        6        7 1
   7        7        8 2
   8        8        9 1
   9        9       10 ar
  10       10       11 1
  11       11       12 1
  12       12       13 1
  13       13       14 1
  14       14       15 1
  15       15       16 1
  16       16       17 1
  17       17       12 1
  18       10       18 ar
  19       18       19 ar
  20       19       20 ar
  21       20       21 ar
  22       21        9 ar
  23       21        6 1
  24        5       22 1
  25       22       23 1
  26       22       24 1
  27       24        3 1
  28       24       25 1
  29        3       26 1
  30       22       27 1
  31       24       28 1
  32        1       29 1
  33        2       30 1
  34        2       31 1
  35        5       32 1
  36        7       33 1
  37       11       34 1
  38       12       35 1
  39       13       36 1
  40       13       37 1
  41       14       38 1
  42       14       39 1
  43       15       40 1
  44       15       41 1
  45       16       42 1
  46       16       43 1
  47       17       44 1
  48       17       45 1
  49       19       46 1
  50       23       47 1
  51       25       48 1

@<TRIPOS>MOLECULE
CHEMBL85549
  48   51
SMALL
USER_CHARGES
@<TRIPOS>ATOM
   1 O1           0.1006     1.5750     2.4406 O.3          1    LIG   0.0000
   2 C2          -0.5499     2.1212     1.3026 C.3          1    LIG   0.0000
   3 C3           0.0733     1.5491     0.0394 C.3          1    LIG   0.0000
   4 O4           1.4556     1.8246    -0.0978 O.3          1    LIG   0.0000
   5 C5           2.2010     0.7963     0.5413 C.3          1    LIG   0.0000
   6 N6           3.1890     0.3303    -0.4413 N.pl3        1    LIG   0.0000
   7 C7           3.3221     0.8272    -1.7036 C.2          1    LIG   0.0000
   8 N8           4.3035     0.1746    -2.2843 N.2          1    LIG   0.0000
   9 C9           4.8079    -0.7455    -1.4103 C.ar         1    LIG   0.0000
  10 C10          5.8369    -1.6757    -1.5206 C.ar         1    LIG   0.0000
  11 N11          6.5480    -1.7601    -2.7236 N.pl3        1    LIG   0.0000
  12 C12          7.6392    -2.7342    -2.8654 C.3          1    LIG   0.0000
  13 C13          7.0813    -4.1476    -2.9112 C.3          1    LIG   0.0000
  14 C14          8.2082    -5.1567    -3.0629 C.3          1    LIG   0.0000
  15 C15          9.1770    -5.0160    -1.8999 C.3          1    LIG   0.0000
  16 C16          9.7442    -3.6062    -1.8548 C.3          1    LIG   0.0000
  17 C17          8.6178    -2.5955    -1.7105 C.3          1    LIG   0.0000
  18 N18          6.1377    -2.4771    -0.4875 N.ar         1    LIG   0.0000
  19 C19          5.4440    -2.3816     0.6571 C.ar         1    LIG   0.0000
  20 N20          4.4532    -1.4821     0.7724 N.ar         1    LIG   0.0000
  21 C21          4.1086    -0.6553    -0.2304 C.ar         1    LIG   0.0000
  22 C22          1.2030    -0.2914     0.8991 C.3          1    LIG   0.0000
  23 O23          1.7119    -1.5945     0.6501 O.3          1    LIG   0.0000
  24 C24          0.0305     0.0380    -0.0005 C.3          1    LIG   0.0000
  25 O25          0.2108    -0.4241    -1.3330 O.3          1    LIG   0.0000
  26 H           -0.4122     1.9105    -0.7567 H            1    LIG   0.0000
  27 H            0.9332    -0.2066     1.8583 H            1    LIG   0.0000
  28 H           -0.8252    -0.3065     0.3856 H            1    LIG   0.0000
  29 H           -0.3093     1.9514     3.2715 H            1    LIG   0.0000
  30 H           -0.4460     3.1158     1.3046 H            1    LIG   0.0000
  31 H           -1.5219     1.8875     1.3301 H            1    LIG   0.0000
  32 H            2.6543     1.1449     1.3616 H            1    LIG   0.0000
  33 H            2.7730     1.5558    -2.1130 H            1    LIG   0.0000
  34 H            6.3134    -1.1575    -3.4864 H            1    LIG   0.0000
  35 H            8.1237    -2.5519    -3.7210 H            1    LIG   0.0000
  36 H            6.4576    -4.2307    -3.6884 H            1    LIG   0.0000
  37 H            6.5843    -4.3334    -2.0636 H            1    LIG   0.0000
  38 H            8.6923    -4.9887    -3.9217 H            1    LIG   0.0000
  39 H            7.8283    -6.0817    -3.0699 H            1    LIG   0.0000
  40 H            9.9254    -5.6695    -2.0128 H            1    LIG   0.0000
  41 H            8.6953    -5.2055    -1.0443 H            1    LIG   0.0000
  42 H           10.3646    -3.5239    -1.0748 H            1    LIG   0.0000
  43 H           10.2460    -3.4241    -2.7004 H            1    LIG   0.0000
  44 H            8.1371    -2.7570    -0.8487 H            1    LIG   0.0000
  45 H            9.0005    -1.6716    -1.7106 H            1    LIG   0.0000
  46 H            5.6653    -2.9814     1.4261 H            1    LIG   0.0000
  47 H            2.4825    -1.7739     1.2617 H            1    LIG   0.0000
  48 H            0.1806    -1.4236    -1.3462 H            1    LIG   0.0000
@<TRIPOS>BOND
   1        1        2 1
   2        2        3 1
   3        3        4 1
   4        4        5 1
   5        5        6 1
   6        6        7 1
   7        7        8 2
   8        8        9 1
   9        9       10 ar
  10       10       11 1
  11       11       12 1
  12       12       13 1
  13       13       14 1
  14       14       15 1
  15       15       16 1
  16       16       17 1
  17       17       12 1
  18       10       18 ar
  19       18       19 ar
  20       19       20 ar
  21       20       21 ar
  22       21        9 ar
  23       21        6 1
  24        5       22 1
  25       22       23 1
  26       22       24 1
  27       24        3 1
  28       24       25 1
  29        3       26 1
  30       22       27 1
  31       24       28 1
  32        1       29 1
  33        2       30 1
  34        2       31 1
  35        5       32 1
  36        7       33 1
  37       11       34 1
  38       12       35 1
  39       13       36 1
  40       13       37 1
  41       14       38 1
  42       14       39 1
  43       15       40 1
  44       15       41 1
  45       16       42 1
  46       16       43 1
  47       17       44 1
  48       17       45 1
  49       19       46 1
  50       23       47 1
  51       25       48 1

@<TRIPOS>MOLECULE
CHEMBL85549
  48   51
SMALL
USER_CHARGES
@<TRIPOS>ATOM
   1 O1           0.1006     1.5750     2.4406 O.3          1    LIG   0.0000
   2 C2          -0.5499     2.1212     1.3026 C.3          1    LIG   0.0000
   3 C3           0.0733     1.5491     0.0394 C.3          1    LIG   0.0000
   4 O4           1.4556     1.8246    -0.0978 O.3          1    LIG   0.0000
   5 C5           2.2010     0.7963     0.5413 C.3          1    LIG   0.0000
   6 N6           3.1890     0.3303    -0.4413 N.pl3        1    LIG   0.0000
   7 C7           3.3221     0.8272    -1.7036 C.2          1    LIG   0.0000
   8 N8           4.3035     0.1746    -2.2843 N.2          1    LIG   0.0000
   9 C9           4.8079    -0.7455    -1.4103 C.ar         1    LIG   0.0000
  10 C10          5.8369    -1.6757    -1.5206 C.ar         1    LIG   0.0000
  11 N11          6.5480    -1.7601    -2.7236 N.pl3        1    LIG   0.0000
  12 C12          7.6392    -2.7342    -2.8654 C.3          1    LIG   0.0000
  13 C13          8.2556    -2.6370    -4.2517 C.3          1    LIG   0.0000
  14 C14          9.3880    -3.6406    -4.3988 C.3          1    LIG   0.0000
  15 C15          8.8570    -5.0452    -4.1616 C.3          1    LIG   0.0000
  16 C16          8.2469    -5.1498    -2.7730 C.3          1    LIG   0.0000
  17 C17          7.1191    -4.1416    -2.6219 C.3          1    LIG   0.0000
  18 N18          6.1377    -2.4771    -0.4875 N.ar         1    LIG   0.0000
  19 C19          5.4440    -2.3816     0.6571 C.ar         1    LIG   0.0000
  20 N20          4.4532    -1.4821     0.7724 N.ar         1    LIG   0.0000
  21 C21          4.1086    -0.6553    -0.2304 C.ar         1    LIG   0.0000
  22 C22          1.2030    -0.2914     0.8991 C.3          1    LIG   0.0000
  23 O23          1.7119    -1.5945     0.6501 O.3          1    LIG   0.0000
  24 C24          0.0305     0.0380    -0.0005 C.3          1    LIG   0.0000
  25 O25          0.2108    -0.4241    -1.3330 O.3          1    LIG   0.0000
  26 H           -0.4122     1.9105    -0.7567 H            1    LIG   0.0000
  27 H            0.9332    -0.2066     1.8583 H            1    LIG   0.0000
  28 H           -0.8252    -0.3065     0.3856 H            1    LIG   0.0000
  29 H           -0.3093     1.9514     3.2715 H            1    LIG   0.0000
  30 H           -0.4460     3.1158     1.3046 H            1    LIG   0.0000
  31 H           -1.5219     1.8875     1.3301 H            1    LIG   0.0000
  32 H            2.6543     1.1449     1.3616 H            1    LIG   0.0000
  33 H            2.7730     1.5558    -2.1130 H            1    LIG   0.0000
  34 H            6.3134    -1.1575    -3.4864 H            1    LIG   0.0000
  35 H            8.3433    -2.5295    -2.1855 H            1    LIG   0.0000
  36 H            8.6136    -1.7135    -4.3893 H            1    LIG   0.0000
  37 H            7.5543    -2.8284    -4.9384 H            1    LIG   0.0000
  38 H           10.1024    -3.4372    -3.7293 H            1    LIG   0.0000
  39 H            9.7689    -3.5800    -5.3214 H            1    LIG   0.0000
  40 H            9.6084    -5.7001    -4.2422 H            1    LIG   0.0000
  41 H            8.1582    -5.2538    -4.8457 H            1    LIG   0.0000
  42 H            7.8860    -6.0727    -2.6387 H            1    LIG   0.0000
  43 H            8.9508    -4.9642    -2.0874 H            1    LIG   0.0000
  44 H            6.4002    -4.3479    -3.2857 H            1    LIG   0.0000
  45 H            6.7450    -4.2003    -1.6963 H            1    LIG   0.0000
  46 H            5.6653    -2.9814     1.4261 H            1    LIG   0.0000
  47 H            2.4825    -1.7739     1.2617 H            1    LIG   0.0000
  48 H            0.1806    -1.4236    -1.3462 H            1    LIG   0.0000
@<TRIPOS>BOND
   1        1        2 1
   2        2        3 1
   3        3        4 1
   4        4        5 1
   5        5        6 1
   6        6        7 1
   7        7        8 2
   8        8        9 1
   9        9       10 ar
  10       10       11 1
  11       11       12 1
  12       12       13 1
  13       13       14 1
  14       14       15 1
  15       15       16 1
  16       16       17 1
  17       17       12 1
  18       10       18 ar
  19       18       19 ar
  20       19       20 ar
  21       20       21 ar
  22       21        9 ar
  23       21        6 1
  24        5       22 1
  25       22       23 1
  26       22       24 1
  27       24        3 1
  28       24       25 1
  29        3       26 1
  30       22       27 1
  31       24       28 1
  32        1       29 1
  33        2       30 1
  34        2       31 1
  35        5       32 1
  36        7       33 1
  37       11       34 1
  38       12       35 1
  39       13       36 1
  40       13       37 1
  41       14       38 1
  42       14       39 1
  43       15       40 1
  44       15       41 1
  45       16       42 1
  46       16       43 1
  47       17       44 1
  48       17       45 1
  49       19       46 1
  50       23       47 1
  51       25       48 1

@<TRIPOS>MOLECULE
CHEMBL85549
  48   51
SMALL
USER_CHARGES
@<TRIPOS>ATOM
   1 O1           0.1006     1.5750     2.4406 O.3          1    LIG   0.0000
   2 C2          -0.5499     2.1212     1.3026 C.3          1    LIG   0.0000
   3 C3           0.0733     1.5491     0.0394 C.3          1    LIG   0.0000
   4 O4           1.4556     1.8246    -0.0978 O.3          1    LIG   0.0000
   5 C5           2.2010     0.7963     0.5413 C.3          1    LIG   0.0000
   6 N6           3.1890     0.3303    -0.4413 N.pl3        1    LIG   0.0000
   7 C7           3.3221     0.8272    -1.7036 C.2          1    LIG   0.0000
   8 N8           4.3035     0.1746    -2.2843 N.2          1    LIG   0.0000
   9 C9           4.8079    -0.7455    -1.4103 C.ar         1    LIG   0.0000
  10 C10          5.8369    -1.6757    -1.5206 C.ar         1    LIG   0.0000
  11 N11          6.5480    -1.7601    -2.7236 N.pl3        1    LIG   0.0000
  12 C12          7.6393    -2.7343    -2.8654 C.3          1    LIG   0.0000
  13 C13          8.8244    -2.3227    -2.0070 C.3          1    LIG   0.0000
  14 C14          9.9483    -3.3360    -2.1516 C.3          1    LIG   0.0000
  15 C15          9.4673    -4.7176    -1.7380 C.3          1    LIG   0.0000
  16 C16          8.2855    -5.1242    -2.6038 C.3          1    LIG   0.0000
  17 C17          7.1547    -4.1178    -2.4628 C.3          1    LIG   0.0000
  18 N18          6.1377    -2.4771    -0.4875 N.ar         1    LIG   0.0000
  19 C19          5.4440    -2.3816     0.6571 C.ar         1    LIG   0.0000
  20 N20          4.4532    -1.4821     0.7724 N.ar         1    LIG   0.0000
  21 C21          4.1086    -0.6553    -0.2304 C.ar         1    LIG   0.0000
  22 C22          1.2030    -0.2914     0.8991 C.3          1    LIG   0.0000
  23 O23          1.7119    -1.5945     0.6501 O.3          1    LIG   0.0000
  24 C24          0.0305     0.0380    -0.0005 C.3          1    LIG   0.0000
  25 O25          0.2108    -0.4241    -1.3330 O.3          1    LIG   0.0000
  26 H           -0.4122     1.9105    -0.7567 H            1    LIG   0.0000
  27 H            0.9332    -0.2066     1.8583 H            1    LIG   0.0000
  28 H           -0.8252    -0.3065     0.3856 H            1    LIG   0.0000
  29 H           -0.3093     1.9514     3.2715 H            1    LIG   0.0000
  30 H           -0.4460     3.1158     1.3046 H            1    LIG   0.0000
  31 H           -1.5219     1.8875     1.3301 H            1    LIG   0.0000
  32 H            2.6543     1.1449     1.3616 H            1    LIG   0.0000
  33 H            2.7730     1.5558    -2.1130 H            1    LIG   0.0000
  34 H            6.3134    -1.1575    -3.4864 H            1    LIG   0.0000
  35 H            7.9274    -2.7592    -3.8227 H            1    LIG   0.0000
  36 H            8.5400    -2.2781    -1.0494 H            1    LIG   0.0000
  37 H            9.1494    -1.4237    -2.3004 H            1    LIG   0.0000
  38 H           10.7143    -3.0649    -1.5686 H            1    LIG   0.0000
  39 H           10.2482    -3.3626    -3.1052 H            1    LIG   0.0000
  40 H            9.1866    -4.6993    -0.7784 H            1    LIG   0.0000
  41 H           10.2092    -5.3777    -1.8556 H            1    LIG   0.0000
  42 H            8.5753    -5.1625    -3.5602 H            1    LIG   0.0000
  43 H            7.9618    -6.0259    -2.3173 H            1    LIG   0.0000
  44 H            6.3949    -4.3879    -3.0541 H            1    LIG   0.0000
  45 H            6.8460    -4.0971    -1.5119 H            1    LIG   0.0000
  46 H            5.6653    -2.9814     1.4261 H            1    LIG   0.0000
  47 H            2.4825    -1.7739     1.2617 H            1    LIG   0.0000
  48 H            0.1806    -1.4236    -1.3462 H            1    LIG   0.0000
@<TRIPOS>BOND
   1        1        2 1
   2        2        3 1
   3        3        4 1
   4        4        5 1
   5        5        6 1
   6        6        7 1
   7        7        8 2
   8        8        9 1
   9        9       10 ar
  10       10       11 1
  11       11       12 1
  12       12       13 1
  13       13       14 1
  14       14       15 1
  15       15       16 1
  16       16       17 1
  17       17       12 1
  18       10       18 ar
  19       18       19 ar
  20       19       20 ar
  21       20       21 ar
  22       21        9 ar
  23       21        6 1
  24        5       22 1
  25       22       23 1
  26       22       24 1
  27       24        3 1
  28       24       25 1
  29        3       26 1
  30       22       27 1
  31       24       28 1
  32        1       29 1
  33        2       30 1
  34        2       31 1
  35        5       32 1
  36        7       33 1
  37       11       34 1
  38       12       35 1
  39       13       36 1
  40       13       37 1
  41       14       38 1
  42       14       39 1
  43       15       40 1
  44       15       41 1
  45       16       42 1
  46       16       43 1
  47       17       44 1
  48       17       45 1
  49       19       46 1
  50       23       47 1
  51       25       48 1

@<TRIPOS>MOLECULE
CHEMBL85549
  48   51
SMALL
USER_CHARGES
@<TRIPOS>ATOM
   1 O1           0.1006     1.5750     2.4406 O.3          1    LIG   0.0000
   2 C2          -0.5499     2.1212     1.3026 C.3          1    LIG   0.0000
   3 C3           0.0733     1.5491     0.0394 C.3          1    LIG   0.0000
   4 O4           1.4556     1.8246    -0.0978 O.3          1    LIG   0.0000
   5 C5           2.2010     0.7963     0.5413 C.3          1    LIG   0.0000
   6 N6           3.1890     0.3303    -0.4413 N.pl3        1    LIG   0.0000
   7 C7           3.3221     0.8272    -1.7036 C.2          1    LIG   0.0000
   8 N8           4.3035     0.1746    -2.2843 N.2          1    LIG   0.0000
   9 C9           4.8079    -0.7455    -1.4103 C.ar         1    LIG   0.0000
  10 C10          5.8369    -1.6757    -1.5206 C.ar         1    LIG   0.0000
  11 N11          6.5480    -1.7601    -2.7236 N.pl3        1    LIG   0.0000
  12 C12          7.6393    -2.7343    -2.8654 C.3          1    LIG   0.0000
  13 C13          7.0788    -4.1466    -2.9110 C.3          1    LIG   0.0000
  14 C14          8.2099    -5.1505    -3.0641 C.3          1    LIG   0.0000
  15 C15          8.9967    -4.8669    -4.3337 C.3          1    LIG   0.0000
  16 C16          9.5580    -3.4550    -4.2786 C.3          1    LIG   0.0000
  17 C17          8.4329    -2.4434    -4.1290 C.3          1    LIG   0.0000
  18 N18          6.1377    -2.4771    -0.4875 N.ar         1    LIG   0.0000
  19 C19          5.4440    -2.3816     0.6571 C.ar         1    LIG   0.0000
  20 N20          4.4532    -1.4821     0.7724 N.ar         1    LIG   0.0000
  21 C21          4.1086    -0.6553    -0.2304 C.ar         1    LIG   0.0000
  22 C22          1.2030    -0.2914     0.8991 C.3          1    LIG   0.0000
  23 O23          1.7119    -1.5945     0.6501 O.3          1    LIG   0.0000
  24 C24          0.0305     0.0380    -0.0005 C.3          1    LIG   0.0000
  25 O25          0.2108    -0.4241    -1.3330 O.3          1    LIG   0.0000
  26 H           -0.4122     1.9105    -0.7567 H            1    LIG   0.0000
  27 H            0.9332    -0.2066     1.8583 H            1    LIG   0.0000
  28 H           -0.8252    -0.3065     0.3856 H            1    LIG   0.0000
  29 H           -0.3093     1.9514     3.2715 H            1    LIG   0.0000
  30 H           -0.4460     3.1158     1.3046 H            1    LIG   0.0000
  31 H           -1.5219     1.8875     1.3301 H            1    LIG   0.0000
  32 H            2.6543     1.1449     1.3616 H            1    LIG   0.0000
  33 H            2.7730     1.5558    -2.1130 H            1    LIG   0.0000
  34 H            6.3134    -1.1575    -3.4864 H            1    LIG   0.0000
  35 H            8.2482    -2.6540    -2.0763 H            1    LIG   0.0000
  36 H            6.4545    -4.2301    -3.6877 H            1    LIG   0.0000
  37 H            6.5827    -4.3334    -2.0630 H            1    LIG   0.0000
  38 H            7.8279    -6.0734    -3.1116 H            1    LIG   0.0000
  39 H            8.8205    -5.0826    -2.2751 H            1    LIG   0.0000
  40 H            8.3933    -4.9549    -5.1262 H            1    LIG   0.0000
  41 H            9.7485    -5.5215    -4.4129 H            1    LIG   0.0000
  42 H           10.1775    -3.3768    -3.4975 H            1    LIG   0.0000
  43 H           10.0603    -3.2668    -5.1226 H            1    LIG   0.0000
  44 H            8.8200    -1.5230    -4.0728 H            1    LIG   0.0000
  45 H            7.8266    -2.5022    -4.9221 H            1    LIG   0.0000
  46 H            5.6653    -2.9814     1.4261 H            1    LIG   0.0000
  47 H            2.4825    -1.7739     1.2617 H            1    LIG   0.0000
  48 H            0.1806    -1.4236    -1.3462 H            1    LIG   0.0000
@<TRIPOS>BOND
   1        1        2 1
   2        2        3 1
   3        3        4 1
   4        4        5 1
   5        5        6 1
   6        6        7 1
   7        7        8 2
   8        8        9 1
   9        9       10 ar
  10       10       11 1
  11       11       12 1
  12       12       13 1
  13       13       14 1
  14       14       15 1
  15       15       16 1
  16       16       17 1
  17       17       12 1
  18       10       18 ar
  19       18       19 ar
  20       19       20 ar
  21       20       21 ar
  22       21        9 ar
  23       21        6 1
  24        5       22 1
  25       22       23 1
  26       22       24 1
  27       24        3 1
  28       24       25 1
  29        3       26 1
  30       22       27 1
  31       24       28 1
  32        1       29 1
  33        2       30 1
  34        2       31 1
  35        5       32 1
  36        7       33 1
  37       11       34 1
  38       12       35 1
  39       13       36 1
  40       13       37 1
  41       14       38 1
  42       14       39 1
  43       15       40 1
  44       15       41 1
  45       16       42 1
  46       16       43 1
  47       17       44 1
  48       17       45 1
  49       19       46 1
  50       23       47 1
  51       25       48 1

@<TRIPOS>MOLECULE
CHEMBL85549
  48   51
SMALL
USER_CHARGES
@<TRIPOS>ATOM
   1 O1           0.1006     1.5750     2.4406 O.3          1    LIG   0.0000
   2 C2          -0.5499     2.1212     1.3026 C.3          1    LIG   0.0000
   3 C3           0.0733     1.5491     0.0394 C.3          1    LIG   0.0000
   4 O4           1.4556     1.8246    -0.0978 O.3          1    LIG   0.0000
   5 C5           2.2010     0.7963     0.5413 C.3          1    LIG   0.0000
   6 N6           3.1890     0.3303    -0.4413 N.pl3        1    LIG   0.0000
   7 C7           3.3221     0.8272    -1.7036 C.2          1    LIG   0.0000
   8 N8           4.3035     0.1746    -2.2843 N.2          1    LIG   0.0000
   9 C9           4.8079    -0.7455    -1.4103 C.ar         1    LIG   0.0000
  10 C10          5.8369    -1.6757    -1.5206 C.ar         1    LIG   0.0000
  11 N11          6.5480    -1.7601    -2.7236 N.pl3        1    LIG   0.0000
  12 C12          7.6393    -2.7343    -2.8654 C.3          1    LIG   0.0000
  13 C13          8.2538    -2.6350    -4.2523 C.3          1    LIG   0.0000
  14 C14          9.3860    -3.6396    -4.3927 C.3          1    LIG   0.0000
  15 C15         10.4503    -3.3836    -3.3378 C.3          1    LIG   0.0000
  16 C16          9.8295    -3.4893    -1.9539 C.3          1    LIG   0.0000
  17 C17          8.6978    -2.4852    -1.8031 C.3          1    LIG   0.0000
  18 N18          6.1377    -2.4771    -0.4875 N.ar         1    LIG   0.0000
  19 C19          5.4440    -2.3816     0.6571 C.ar         1    LIG   0.0000
  20 N20          4.4532    -1.4821     0.7724 N.ar         1    LIG   0.0000
  21 C21          4.1086    -0.6553    -0.2304 C.ar         1    LIG   0.0000
  22 C22          1.2030    -0.2914     0.8991 C.3          1    LIG   0.0000
  23 O23          1.7119    -1.5945     0.6501 O.3          1    LIG   0.0000
  24 C24          0.0305     0.0380    -0.0005 C.3          1    LIG   0.0000
  25 O25          0.2108    -0.4241    -1.3330 O.3          1    LIG   0.0000
  26 H           -0.4122     1.9105    -0.7567 H            1    LIG   0.0000
  27 H            0.9332    -0.2066     1.8583 H            1    LIG   0.0000
  28 H           -0.8252    -0.3065     0.3856 H            1    LIG   0.0000
  29 H           -0.3093     1.9514     3.2715 H            1    LIG   0.0000
  30 H           -0.4460     3.1158     1.3046 H            1    LIG   0.0000
  31 H           -1.5219     1.8875     1.3301 H            1    LIG   0.0000
  32 H            2.6543     1.1449     1.3616 H            1    LIG   0.0000
  33 H            2.7730     1.5558    -2.1130 H            1    LIG   0.0000
  34 H            6.3134    -1.1575    -3.4864 H            1    LIG   0.0000
  35 H            7.2684    -3.6547    -2.7419 H            1    LIG   0.0000
  36 H            8.6115    -1.7115    -4.3906 H            1    LIG   0.0000
  37 H            7.5532    -2.8275    -4.9394 H            1    LIG   0.0000
  38 H            9.7941    -3.5522    -5.3015 H            1    LIG   0.0000
  39 H            9.0230    -4.5643    -4.2779 H            1    LIG   0.0000
  40 H           10.8303    -2.4672    -3.4633 H            1    LIG   0.0000
  41 H           11.1794    -4.0620    -3.4285 H            1    LIG   0.0000
  42 H            9.4698    -4.4133    -1.8237 H            1    LIG   0.0000
  43 H           10.5289    -3.3036    -1.2638 H            1    LIG   0.0000
  44 H            8.2870    -2.5825    -0.8966 H            1    LIG   0.0000
  45 H            9.0604    -1.5591    -1.9072 H            1    LIG   0.0000
  46 H            5.6653    -2.9814     1.4261 H            1    LIG   0.0000
  47 H            2.4825    -1.7739     1.2617 H            1    LIG   0.0000
  48 H            0.1806    -1.4236    -1.3462 H            1    LIG   0.0000
@<TRIPOS>BOND
   1        1        2 1
   2        2        3 1
   3        3        4 1
   4        4        5 1
   5        5        6 1
   6        6        7 1
   7        7        8 2
   8        8        9 1
   9        9       10 ar
  10       10       11 1
  11       11       12 1
  12       12       13 1
  13       13       14 1
  14       14       15 1
  15       15       16 1
  16       16       17 1
  17       17       12 1
  18       10       18 ar
  19       18       19 ar
  20       19       20 ar
  21       20       21 ar
  22       21        9 ar
  23       21        6 1
  24        5       22 1
  25       22       23 1
  26       22       24 1
  27       24        3 1
  28       24       25 1
  29        3       26 1
  30       22       27 1
  31       24       28 1
  32        1       29 1
  33        2       30 1
  34        2       31 1
  35        5       32 1
  36        7       33 1
  37       11       34 1
  38       12       35 1
  39       13       36 1
  40       13       37 1
  41       14       38 1
  42       14       39 1
  43       15       40 1
  44       15       41 1
  45       16       42 1
  46       16       43 1
  47       17       44 1
  48       17       45 1
  49       19       46 1
  50       23       47 1
  51       25       48 1

@<TRIPOS>MOLECULE
CHEMBL85549
  48   51
SMALL
USER_CHARGES
@<TRIPOS>ATOM
   1 O1           0.1006     1.5750     2.4406 O.3          1    LIG   0.0000
   2 C2          -0.5499     2.1212     1.3026 C.3          1    LIG   0.0000
   3 C3           0.0733     1.5491     0.0394 C.3          1    LIG   0.0000
   4 O4           1.4556     1.8246    -0.0978 O.3          1    LIG   0.0000
   5 C5           2.2010     0.7963     0.5413 C.3          1    LIG   0.0000
   6 N6           3.1890     0.3303    -0.4413 N.pl3        1    LIG   0.0000
   7 C7           3.0079     0.3478    -1.7922 C.2          1    LIG   0.0000
   8 N8           4.0970    -0.1379    -2.3437 N.2          1    LIG   0.0000
   9 C9           4.9843    -0.4741    -1.3617 C.ar         1    LIG   0.0000
  10 C10          6.2645    -1.0178    -1.4026 C.ar         1    LIG   0.0000
  11 N11          6.8358    -1.3132    -2.6462 N.pl3        1    LIG   0.0000
  12 C12          8.1876    -1.8884    -2.7165 C.3          1    LIG   0.0000
  13 C13          9.2243    -0.8497    -2.3070 C.3          1    LIG   0.0000
  14 C14         10.6346    -1.4211    -2.3259 C.3          1    LIG   0.0000
  15 C15         10.6604    -2.9012    -2.6817 C.3          1    LIG   0.0000
  16 C16          9.7171    -3.6383    -1.7456 C.3          1    LIG   0.0000
  17 C17          8.3060    -3.0720    -1.7698 C.3          1    LIG   0.0000
  18 N18          6.9357    -1.2539    -0.2652 N.ar         1    LIG   0.0000
  19 C19          6.3708    -0.9646     0.9171 C.ar         1    LIG   0.0000
  20 N20          5.1375    -0.4345     0.9638 N.ar         1    LIG   0.0000
  21 C21          4.4196    -0.1784    -0.1439 C.ar         1    LIG   0.0000
  22 C22          1.2030    -0.2914     0.8991 C.3          1    LIG   0.0000
  23 O23          1.7119    -1.5945     0.6501 O.3          1    LIG   0.0000
  24 C24          0.0305     0.0380    -0.0005 C.3          1    LIG   0.0000
  25 O25          0.2108    -0.4241    -1.3330 O.3          1    LIG   0.0000
  26 H           -0.4122     1.9105    -0.7567 H            1    LIG   0.0000
  27 H            0.9332    -0.2066     1.8583 H            1    LIG   0.0000
  28 H           -0.8252    -0.3065     0.3856 H            1    LIG   0.0000
  29 H           -0.3093     1.9514     3.2715 H            1    LIG   0.0000
  30 H           -0.4460     3.1158     1.3046 H            1    LIG   0.0000
  31 H           -1.5219     1.8875     1.3301 H            1    LIG   0.0000
  32 H            2.6543     1.1449     1.3616 H            1    LIG   0.0000
  33 H            2.1943     0.6713    -2.2754 H            1    LIG   0.0000
  34 H            6.3247    -1.1331    -3.4866 H            1    LIG   0.0000
  35 H            8.3718    -2.1910    -3.6516 H            1    LIG   0.0000
  36 H            9.0162    -0.5319    -1.3820 H            1    LIG   0.0000
  37 H            9.1788    -0.0790    -2.9424 H            1    LIG   0.0000
  38 H           11.0407    -1.3022    -1.4198 H            1    LIG   0.0000
  39 H           11.1746    -0.9195    -3.0017 H            1    LIG   0.0000
  40 H           11.5886    -3.2577    -2.5749 H            1    LIG   0.0000
  41 H           10.3623    -3.0259    -3.6280 H            1    LIG   0.0000
  42 H            9.6810    -4.5994    -2.0193 H            1    LIG   0.0000
  43 H           10.0733    -3.5702    -0.8137 H            1    LIG   0.0000
  44 H            7.6750    -3.7885    -2.0673 H            1    LIG   0.0000
  45 H            8.0611    -2.7741    -0.8472 H            1    LIG   0.0000
  46 H            6.8691    -1.1442     1.7653 H            1    LIG   0.0000
  47 H            2.4825    -1.7739     1.2617 H            1    LIG   0.0000
  48 H            0.1806    -1.4236    -1.3462 H            1    LIG   0.0000
@<TRIPOS>BOND
   1        1        2 1
   2        2        3 1
   3        3        4 1
   4        4        5 1
   5        5        6 1
   6        6        7 1
   7        7        8 2
   8        8        9 1
   9        9       10 ar
  10       10       11 1
  11       11       12 1
  12       12       13 1
  13       13       14 1
  14       14       15 1
  15       15       16 1
  16       16       17 1
  17       17       12 1
  18       10       18 ar
  19       18       19 ar
  20       19       20 ar
  21       20       21 ar
  22       21        9 ar
  23       21        6 1
  24        5       22 1
  25       22       23 1
  26       22       24 1
  27       24        3 1
  28       24       25 1
  29        3       26 1
  30       22       27 1
  31       24       28 1
  32        1       29 1
  33        2       30 1
  34        2       31 1
  35        5       32 1
  36        7       33 1
  37       11       34 1
  38       12       35 1
  39       13       36 1
  40       13       37 1
  41       14       38 1
  42       14       39 1
  43       15       40 1
  44       15       41 1
  45       16       42 1
  46       16       43 1
  47       17       44 1
  48       17       45 1
  49       19       46 1
  50       23       47 1
  51       25       48 1

@<TRIPOS>MOLECULE
CHEMBL85549
  48   51
SMALL
USER_CHARGES
@<TRIPOS>ATOM
   1 O1           0.1006     1.5750     2.4406 O.3          1    LIG   0.0000
   2 C2          -0.5499     2.1212     1.3026 C.3          1    LIG   0.0000
   3 C3           0.0733     1.5491     0.0394 C.3          1    LIG   0.0000
   4 O4           1.4556     1.8246    -0.0978 O.3          1    LIG   0.0000
   5 C5           2.2010     0.7963     0.5413 C.3          1    LIG   0.0000
   6 N6           3.1890     0.3303    -0.4413 N.pl3        1    LIG   0.0000
   7 C7           3.0079     0.3478    -1.7922 C.2          1    LIG   0.0000
   8 N8           4.0970    -0.1379    -2.3437 N.2          1    LIG   0.0000
   9 C9           4.9843    -0.4741    -1.3617 C.ar         1    LIG   0.0000
  10 C10          6.2645    -1.0178    -1.4026 C.ar         1    LIG   0.0000
  11 N11          6.8358    -1.3132    -2.6462 N.pl3        1    LIG   0.0000
  12 C12          8.1876    -1.8884    -2.7165 C.3          1    LIG   0.0000
  13 C13          8.1779    -3.3219    -2.2004 C.3          1    LIG   0.0000
  14 C14          9.5529    -3.9666    -2.2973 C.3          1    LIG   0.0000
  15 C15         10.5828    -3.0513    -2.9449 C.3          1    LIG   0.0000
  16 C16         10.0355    -2.5801    -4.2820 C.3          1    LIG   0.0000
  17 C17          8.6771    -1.9082    -4.1556 C.3          1    LIG   0.0000
  18 N18          6.9357    -1.2539    -0.2652 N.ar         1    LIG   0.0000
  19 C19          6.3708    -0.9646     0.9171 C.ar         1    LIG   0.0000
  20 N20          5.1375    -0.4345     0.9638 N.ar         1    LIG   0.0000
  21 C21          4.4196    -0.1784    -0.1439 C.ar         1    LIG   0.0000
  22 C22          1.2030    -0.2914     0.8991 C.3          1    LIG   0.0000
  23 O23          1.7119    -1.5945     0.6501 O.3          1    LIG   0.0000
  24 C24          0.0305     0.0380    -0.0005 C.3          1    LIG   0.0000
  25 O25          0.2108    -0.4241    -1.3330 O.3          1    LIG   0.0000
  26 H           -0.4122     1.9105    -0.7567 H            1    LIG   0.0000
  27 H            0.9332    -0.2066     1.8583 H            1    LIG   0.0000
  28 H           -0.8252    -0.3065     0.3856 H            1    LIG   0.0000
  29 H           -0.3093     1.9514     3.2715 H            1    LIG   0.0000
  30 H           -0.4460     3.1158     1.3046 H            1    LIG   0.0000
  31 H           -1.5219     1.8875     1.3301 H            1    LIG   0.0000
  32 H            2.6543     1.1449     1.3616 H            1    LIG   0.0000
  33 H            2.1943     0.6713    -2.2754 H            1    LIG   0.0000
  34 H            6.3247    -1.1331    -3.4866 H            1    LIG   0.0000
  35 H            8.8117    -1.3393    -2.1607 H            1    LIG   0.0000
  36 H            7.5305    -3.8569    -2.7432 H            1    LIG   0.0000
  37 H            7.8883    -3.3194    -1.2433 H            1    LIG   0.0000
  38 H            9.4778    -4.8013    -2.8429 H            1    LIG   0.0000
  39 H            9.8642    -4.1978    -1.3756 H            1    LIG   0.0000
  40 H           11.4368    -3.5518    -3.0874 H            1    LIG   0.0000
  41 H           10.7531    -2.2632    -2.3535 H            1    LIG   0.0000
  42 H           10.6799    -1.9268    -4.6793 H            1    LIG   0.0000
  43 H            9.9463    -3.3707    -4.8878 H            1    LIG   0.0000
  44 H            8.7498    -0.9670    -4.4856 H            1    LIG   0.0000
  45 H            8.0159    -2.4076    -4.7154 H            1    LIG   0.0000
  46 H            6.8691    -1.1442     1.7653 H            1    LIG   0.0000
  47 H            2.4825    -1.7739     1.2617 H            1    LIG   0.0000
  48 H            0.1806    -1.4236    -1.3462 H            1    LIG   0.0000
@<TRIPOS>BOND
   1        1        2 1
   2        2        3 1
   3        3        4 1
   4        4        5 1
   5        5        6 1
   6        6        7 1
   7        7        8 2
   8        8        9 1
   9        9       10 ar
  10       10       11 1
  11       11       12 1
  12       12       13 1
  13       13       14 1
  14       14       15 1
  15       15       16 1
  16       16       17 1
  17       17       12 1
  18       10       18 ar
  19       18       19 ar
  20       19       20 ar
  21       20       21 ar
  22       21        9 ar
  23       21        6 1
  24        5       22 1
  25       22       23 1
  26       22       24 1
  27       24        3 1
  28       24       25 1
  29        3       26 1
  30       22       27 1
  31       24       28 1
  32        1       29 1
  33        2       30 1
  34        2       31 1
  35        5       32 1
  36        7       33 1
  37       11       34 1
  38       12       35 1
  39       13       36 1
  40       13       37 1
  41       14       38 1
  42       14       39 1
  43       15       40 1
  44       15       41 1
  45       16       42 1
  46       16       43 1
  47       17       44 1
  48       17       45 1
  49       19       46 1
  50       23       47 1
  51       25       48 1

@<TRIPOS>MOLECULE
CHEMBL85549
  48   51
SMALL
USER_CHARGES
@<TRIPOS>ATOM
   1 O1           0.1006     1.5750     2.4406 O.3          1    LIG   0.0000
   2 C2          -0.5499     2.1212     1.3026 C.3          1    LIG   0.0000
   3 C3           0.0733     1.5491     0.0394 C.3          1    LIG   0.0000
   4 O4           1.4556     1.8246    -0.0978 O.3          1    LIG   0.0000
   5 C5           2.2010     0.7963     0.5413 C.3          1    LIG   0.0000
   6 N6           3.1890     0.3303    -0.4413 N.pl3        1    LIG   0.0000
   7 C7           3.0079     0.3478    -1.7922 C.2          1    LIG   0.0000
   8 N8           4.0970    -0.1379    -2.3437 N.2          1    LIG   0.0000
   9 C9           4.9843    -0.4741    -1.3617 C.ar         1    LIG   0.0000
  10 C10          6.2645    -1.0178    -1.4026 C.ar         1    LIG   0.0000
  11 N11          6.8358    -1.3132    -2.6462 N.pl3        1    LIG   0.0000
  12 C12          8.1876    -1.8884    -2.7165 C.3          1    LIG   0.0000
  13 C13          8.5870    -2.1200    -4.1684 C.3          1    LIG   0.0000
  14 C14          9.9989    -2.6757    -4.2843 C.3          1    LIG   0.0000
  15 C15         10.6900    -2.8008    -2.9335 C.3          1    LIG   0.0000
  16 C16         10.6208    -1.4554    -2.2304 C.3          1    LIG   0.0000
  17 C17          9.1976    -0.9370    -2.0952 C.3          1    LIG   0.0000
  18 N18          6.9357    -1.2539    -0.2652 N.ar         1    LIG   0.0000
  19 C19          6.3708    -0.9646     0.9171 C.ar         1    LIG   0.0000
  20 N20          5.1375    -0.4345     0.9638 N.ar         1    LIG   0.0000
  21 C21          4.4196    -0.1784    -0.1439 C.ar         1    LIG   0.0000
  22 C22          1.2030    -0.2914     0.8991 C.3          1    LIG   0.0000
  23 O23          1.7119    -1.5945     0.6501 O.3          1    LIG   0.0000
  24 C24          0.0305     0.0380    -0.0005 C.3          1    LIG   0.0000
  25 O25          0.2108    -0.4241    -1.3330 O.3          1    LIG   0.0000
  26 H           -0.4122     1.9105    -0.7567 H            1    LIG   0.0000
  27 H            0.9332    -0.2066     1.8583 H            1    LIG   0.0000
  28 H           -0.8252    -0.3065     0.3856 H            1    LIG   0.0000
  29 H           -0.3093     1.9514     3.2715 H            1    LIG   0.0000
  30 H           -0.4460     3.1158     1.3046 H            1    LIG   0.0000
  31 H           -1.5219     1.8875     1.3301 H            1    LIG   0.0000
  32 H            2.6543     1.1449     1.3616 H            1    LIG   0.0000
  33 H            2.1943     0.6713    -2.2754 H            1    LIG   0.0000
  34 H            6.3247    -1.1331    -3.4866 H            1    LIG   0.0000
  35 H            8.2044    -2.7587    -2.2243 H            1    LIG   0.0000
  36 H            8.5400    -1.2503    -4.6597 H            1    LIG   0.0000
  37 H            7.9484    -2.7703    -4.5800 H            1    LIG   0.0000
  38 H           10.5373    -2.0644    -4.8644 H            1    LIG   0.0000
  39 H            9.9534    -3.5812    -4.7062 H            1    LIG   0.0000
  40 H           11.6458    -3.0632    -3.0665 H            1    LIG   0.0000
  41 H           10.2277    -3.4944    -2.3810 H            1    LIG   0.0000
  42 H           11.0146    -1.5514    -1.3162 H            1    LIG   0.0000
  43 H           11.1544    -0.7922    -2.7553 H            1    LIG   0.0000
  44 H            8.9841    -0.8273    -1.1245 H            1    LIG   0.0000
  45 H            9.1313    -0.0505    -2.5533 H            1    LIG   0.0000
  46 H            6.8691    -1.1442     1.7653 H            1    LIG   0.0000
  47 H            2.4825    -1.7739     1.2617 H            1    LIG   0.0000
  48 H            0.1806    -1.4236    -1.3462 H            1    LIG   0.0000
@<TRIPOS>BOND
   1        1        2 1
   2        2        3 1
   3        3        4 1
   4        4        5 1
   5        5        6 1
   6        6        7 1
   7        7        8 2
   8        8        9 1
   9        9       10 ar
  10       10       11 1
  11       11       12 1
  12       12       13 1
  13       13       14 1
  14       14       15 1
  15       15       16 1
  16       16       17 1
  17       17       12 1
  18       10       18 ar
  19       18       19 ar
  20       19       20 ar
  21       20       21 ar
  22       21        9 ar
  23       21        6 1
  24        5       22 1
  25       22       23 1
  26       22       24 1
  27       24        3 1
  28       24       25 1
  29        3       26 1
  30       22       27 1
  31       24       28 1
  32        1       29 1
  33        2       30 1
  34        2       31 1
  35        5       32 1
  36        7       33 1
  37       11       34 1
  38       12       35 1
  39       13       36 1
  40       13       37 1
  41       14       38 1
  42       14       39 1
  43       15       40 1
  44       15       41 1
  45       16       42 1
  46       16       43 1
  47       17       44 1
  48       17       45 1
  49       19       46 1
  50       23       47 1
  51       25       48 1

@<TRIPOS>MOLECULE
CHEMBL85549
  48   51
SMALL
USER_CHARGES
@<TRIPOS>ATOM
   1 O1           0.1006     1.5750     2.4406 O.3          1    LIG   0.0000
   2 C2          -0.5499     2.1212     1.3026 C.3          1    LIG   0.0000
   3 C3           0.0733     1.5491     0.0394 C.3          1    LIG   0.0000
   4 O4           1.4556     1.8246    -0.0978 O.3          1    LIG   0.0000
   5 C5           2.2010     0.7963     0.5413 C.3          1    LIG   0.0000
   6 N6           3.1890     0.3303    -0.4413 N.pl3        1    LIG   0.0000
   7 C7           3.0079     0.3478    -1.7922 C.2          1    LIG   0.0000
   8 N8           4.0970    -0.1379    -2.3437 N.2          1    LIG   0.0000
   9 C9           4.9843    -0.4741    -1.3617 C.ar         1    LIG   0.0000
  10 C10          6.2645    -1.0178    -1.4026 C.ar         1    LIG   0.0000
  11 N11          6.8358    -1.3132    -2.6462 N.pl3        1    LIG   0.0000
  12 C12          8.1859    -1.8877    -2.7164 C.3          1    LIG   0.0000
  13 C13          9.2223    -0.8463    -2.3060 C.3          1    LIG   0.0000
  14 C14         10.6421    -1.3744    -2.4486 C.3          1    LIG   0.0000
  15 C15         10.6792    -2.7982    -2.9811 C.3          1    LIG   0.0000
  16 C16          9.9074    -2.8314    -4.2917 C.3          1    LIG   0.0000
  17 C17          8.4928    -2.2857    -4.1517 C.3          1    LIG   0.0000
  18 N18          6.9357    -1.2539    -0.2652 N.ar         1    LIG   0.0000
  19 C19          6.3708    -0.9646     0.9171 C.ar         1    LIG   0.0000
  20 N20          5.1375    -0.4345     0.9638 N.ar         1    LIG   0.0000
  21 C21          4.4196    -0.1784    -0.1439 C.ar         1    LIG   0.0000
  22 C22          1.2030    -0.2914     0.8991 C.3          1    LIG   0.0000
  23 O23          1.7119    -1.5945     0.6501 O.3          1    LIG   0.0000
  24 C24          0.0305     0.0380    -0.0005 C.3          1    LIG   0.0000
  25 O25          0.2108    -0.4241    -1.3330 O.3          1    LIG   0.0000
  26 H           -0.4122     1.9105    -0.7567 H            1    LIG   0.0000
  27 H            0.9332    -0.2066     1.8583 H            1    LIG   0.0000
  28 H           -0.8252    -0.3065     0.3856 H            1    LIG   0.0000
  29 H           -0.3093     1.9514     3.2715 H            1    LIG   0.0000
  30 H           -0.4460     3.1158     1.3046 H            1    LIG   0.0000
  31 H           -1.5219     1.8875     1.3301 H            1    LIG   0.0000
  32 H            2.6543     1.1449     1.3616 H            1    LIG   0.0000
  33 H            2.1943     0.6713    -2.2754 H            1    LIG   0.0000
  34 H            6.3247    -1.1331    -3.4866 H            1    LIG   0.0000
  35 H            8.2490    -2.6870    -2.1188 H            1    LIG   0.0000
  36 H            9.0658    -0.5926    -1.3515 H            1    LIG   0.0000
  37 H            9.1175    -0.0391    -2.8869 H            1    LIG   0.0000
  38 H           11.0837    -1.3552    -1.5515 H            1    LIG   0.0000
  39 H           11.1434    -0.7822    -3.0795 H            1    LIG   0.0000
  40 H           10.2544    -3.4182    -2.3214 H            1    LIG   0.0000
  41 H           11.6266    -3.0770    -3.1382 H            1    LIG   0.0000
  42 H           10.3981    -2.2802    -4.9665 H            1    LIG   0.0000
  43 H            9.8556    -3.7783    -4.6089 H            1    LIG   0.0000
  44 H            8.3952    -1.4824    -4.7392 H            1    LIG   0.0000
  45 H            7.8434    -2.9898    -4.4391 H            1    LIG   0.0000
  46 H            6.8691    -1.1442     1.7653 H            1    LIG   0.0000
  47 H            2.4825    -1.7739     1.2617 H            1    LIG   0.0000
  48 H            0.1806    -1.4236    -1.3462 H            1    LIG   0.0000
@<TRIPOS>BOND
   1        1        2 1
   2        2        3 1
   3        3        4 1
   4        4        5 1
   5        5        6 1
   6        6        7 1
   7        7        8 2
   8        8        9 1
   9        9       10 ar
  10       10       11 1
  11       11       12 1
  12       12       13 1
  13       13       14 1
  14       14       15 1
  15       15       16 1
  16       16       17 1
  17       17       12 1
  18       10       18 ar
  19       18       19 ar
  20       19       20 ar
  21       20       21 ar
  22       21        9 ar
  23       21        6 1
  24        5       22 1
  25       22       23 1
  26       22       24 1
  27       24        3 1
  28       24       25 1
  29        3       26 1
  30       22       27 1
  31       24       28 1
  32        1       29 1
  33        2       30 1
  34        2       31 1
  35        5       32 1
  36        7       33 1
  37       11       34 1
  38       12       35 1
  39       13       36 1
  40       13       37 1
  41       14       38 1
  42       14       39 1
  43       15       40 1
  44       15       41 1
  45       16       42 1
  46       16       43 1
  47       17       44 1
  48       17       45 1
  49       19       46 1
  50       23       47 1
  51       25       48 1

@<TRIPOS>MOLECULE
CHEMBL85549
  48   51
SMALL
USER_CHARGES
@<TRIPOS>ATOM
   1 O1           0.1006     1.5750     2.4406 O.3          1    LIG   0.0000
   2 C2          -0.5499     2.1212     1.3026 C.3          1    LIG   0.0000
   3 C3           0.0733     1.5491     0.0394 C.3          1    LIG   0.0000
   4 O4           1.4556     1.8246    -0.0978 O.3          1    LIG   0.0000
   5 C5           2.2010     0.7963     0.5413 C.3          1    LIG   0.0000
   6 N6           3.1890     0.3303    -0.4413 N.pl3        1    LIG   0.0000
   7 C7           3.0079     0.3478    -1.7922 C.2          1    LIG   0.0000
   8 N8           4.0970    -0.1379    -2.3437 N.2          1    LIG   0.0000
   9 C9           4.9843    -0.4741    -1.3617 C.ar         1    LIG   0.0000
  10 C10          6.2645    -1.0178    -1.4026 C.ar         1    LIG   0.0000
  11 N11          6.8358    -1.3132    -2.6462 N.pl3        1    LIG   0.0000
  12 C12          8.1859    -1.8877    -2.7164 C.3          1    LIG   0.0000
  13 C13          8.1741    -3.3228    -2.1993 C.3          1    LIG   0.0000
  14 C14          9.5706    -3.9263    -2.1733 C.3          1    LIG   0.0000
  15 C15         10.6328    -2.9479    -2.6493 C.3          1    LIG   0.0000
  16 C16         10.5238    -1.6868    -1.8055 C.3          1    LIG   0.0000
  17 C17          9.1213    -1.0939    -1.8177 C.3          1    LIG   0.0000
  18 N18          6.9357    -1.2539    -0.2652 N.ar         1    LIG   0.0000
  19 C19          6.3708    -0.9646     0.9171 C.ar         1    LIG   0.0000
  20 N20          5.1375    -0.4345     0.9638 N.ar         1    LIG   0.0000
  21 C21          4.4196    -0.1784    -0.1439 C.ar         1    LIG   0.0000
  22 C22          1.2030    -0.2914     0.8991 C.3          1    LIG   0.0000
  23 O23          1.7119    -1.5945     0.6501 O.3          1    LIG   0.0000
  24 C24          0.0305     0.0380    -0.0005 C.3          1    LIG   0.0000
  25 O25          0.2108    -0.4241    -1.3330 O.3          1    LIG   0.0000
  26 H           -0.4122     1.9105    -0.7567 H            1    LIG   0.0000
  27 H            0.9332    -0.2066     1.8583 H            1    LIG   0.0000
  28 H           -0.8252    -0.3065     0.3856 H            1    LIG   0.0000
  29 H           -0.3093     1.9514     3.2715 H            1    LIG   0.0000
  30 H           -0.4460     3.1158     1.3046 H            1    LIG   0.0000
  31 H           -1.5219     1.8875     1.3301 H            1    LIG   0.0000
  32 H            2.6543     1.1449     1.3616 H            1    LIG   0.0000
  33 H            2.1943     0.6713    -2.2754 H            1    LIG   0.0000
  34 H            6.3247    -1.1331    -3.4866 H            1    LIG   0.0000
  35 H            8.5179    -1.8666    -3.6594 H            1    LIG   0.0000
  36 H            7.5932    -3.8768    -2.7957 H            1    LIG   0.0000
  37 H            7.8015    -3.3293    -1.2713 H            1    LIG   0.0000
  38 H            9.5844    -4.7300    -2.7682 H            1    LIG   0.0000
  39 H            9.7842    -4.2017    -1.2360 H            1    LIG   0.0000
  40 H           10.4819    -2.7256    -3.6126 H            1    LIG   0.0000
  41 H           11.5405    -3.3526    -2.5388 H            1    LIG   0.0000
  42 H           10.7689    -1.9103    -0.8622 H            1    LIG   0.0000
  43 H           11.1626    -1.0057    -2.1634 H            1    LIG   0.0000
  44 H            8.7585    -1.0997    -0.8858 H            1    LIG   0.0000
  45 H            9.1698    -0.1523    -2.1507 H            1    LIG   0.0000
  46 H            6.8691    -1.1442     1.7653 H            1    LIG   0.0000
  47 H            2.4825    -1.7739     1.2617 H            1    LIG   0.0000
  48 H            0.1806    -1.4236    -1.3462 H            1    LIG   0.0000
@<TRIPOS>BOND
   1        1        2 1
   2        2        3 1
   3        3        4 1
   4        4        5 1
   5        5        6 1
   6        6        7 1
   7        7        8 2
   8        8        9 1
   9        9       10 ar
  10       10       11 1
  11       11       12 1
  12       12       13 1
  13       13       14 1
  14       14       15 1
  15       15       16 1
  16       16       17 1
  17       17       12 1
  18       10       18 ar
  19       18       19 ar
  20       19       20 ar
  21       20       21 ar
  22       21        9 ar
  23       21        6 1
  24        5       22 1
  25       22       23 1
  26       22       24 1
  27       24        3 1
  28       24       25 1
  29        3       26 1
  30       22       27 1
  31       24       28 1
  32        1       29 1
  33        2       30 1
  34        2       31 1
  35        5       32 1
  36        7       33 1
  37       11       34 1
  38       12       35 1
  39       13       36 1
  40       13       37 1
  41       14       38 1
  42       14       39 1
  43       15       40 1
  44       15       41 1
  45       16       42 1
  46       16       43 1
  47       17       44 1
  48       17       45 1
  49       19       46 1
  50       23       47 1
  51       25       48 1

@<TRIPOS>MOLECULE
CHEMBL85549
  48   51
SMALL
USER_CHARGES
@<TRIPOS>ATOM
   1 O1           0.1006     1.5750     2.4406 O.3          1    LIG   0.0000
   2 C2          -0.5499     2.1212     1.3026 C.3          1    LIG   0.0000
   3 C3           0.0733     1.5491     0.0394 C.3          1    LIG   0.0000
   4 O4           1.4556     1.8246    -0.0978 O.3          1    LIG   0.0000
   5 C5           2.2010     0.7963     0.5413 C.3          1    LIG   0.0000
   6 N6           3.1890     0.3303    -0.4413 N.pl3        1    LIG   0.0000
   7 C7           3.0079     0.3478    -1.7922 C.2          1    LIG   0.0000
   8 N8           4.0970    -0.1379    -2.3437 N.2          1    LIG   0.0000
   9 C9           4.9843    -0.4741    -1.3617 C.ar         1    LIG   0.0000
  10 C10          6.2645    -1.0178    -1.4026 C.ar         1    LIG   0.0000
  11 N11          6.8358    -1.3132    -2.6462 N.pl3        1    LIG   0.0000
  12 C12          8.1859    -1.8877    -2.7164 C.3          1    LIG   0.0000
  13 C13          8.5839    -2.1188    -4.1708 C.3          1    LIG   0.0000
  14 C14          9.9424    -2.7944    -4.2851 C.3          1    LIG   0.0000
  15 C15         10.5582    -3.0892    -2.9264 C.3          1    LIG   0.0000
  16 C16          9.5604    -3.9118    -2.1252 C.3          1    LIG   0.0000
  17 C17          8.1959    -3.2431    -2.0270 C.3          1    LIG   0.0000
  18 N18          6.9357    -1.2539    -0.2652 N.ar         1    LIG   0.0000
  19 C19          6.3708    -0.9646     0.9171 C.ar         1    LIG   0.0000
  20 N20          5.1375    -0.4345     0.9638 N.ar         1    LIG   0.0000
  21 C21          4.4196    -0.1784    -0.1439 C.ar         1    LIG   0.0000
  22 C22          1.2030    -0.2914     0.8991 C.3          1    LIG   0.0000
  23 O23          1.7119    -1.5945     0.6501 O.3          1    LIG   0.0000
  24 C24          0.0305     0.0380    -0.0005 C.3          1    LIG   0.0000
  25 O25          0.2108    -0.4241    -1.3330 O.3          1    LIG   0.0000
  26 H           -0.4122     1.9105    -0.7567 H            1    LIG   0.0000
  27 H            0.9332    -0.2066     1.8583 H            1    LIG   0.0000
  28 H           -0.8252    -0.3065     0.3856 H            1    LIG   0.0000
  29 H           -0.3093     1.9514     3.2715 H            1    LIG   0.0000
  30 H           -0.4460     3.1158     1.3046 H            1    LIG   0.0000
  31 H           -1.5219     1.8875     1.3301 H            1    LIG   0.0000
  32 H            2.6543     1.1449     1.3616 H            1    LIG   0.0000
  33 H            2.1943     0.6713    -2.2754 H            1    LIG   0.0000
  34 H            6.3247    -1.1331    -3.4866 H            1    LIG   0.0000
  35 H            8.8417    -1.2748    -2.2756 H            1    LIG   0.0000
  36 H            8.6207    -1.2366    -4.6403 H            1    LIG   0.0000
  37 H            7.8960    -2.6996    -4.6061 H            1    LIG   0.0000
  38 H           10.5586    -2.1930    -4.7935 H            1    LIG   0.0000
  39 H            9.8323    -3.6555    -4.7816 H            1    LIG   0.0000
  40 H           10.7524    -2.2323    -2.4489 H            1    LIG   0.0000
  41 H           11.4068    -3.6052    -3.0434 H            1    LIG   0.0000
  42 H            9.4499    -4.8016    -2.5680 H            1    LIG   0.0000
  43 H            9.9207    -4.0416    -1.2014 H            1    LIG   0.0000
  44 H            7.5138    -3.8324    -2.4599 H            1    LIG   0.0000
  45 H            7.9644    -3.1182    -1.0622 H            1    LIG   0.0000
  46 H            6.8691    -1.1442     1.7653 H            1    LIG   0.0000
  47 H            2.4825    -1.7739     1.2617 H            1    LIG   0.0000
  48 H            0.1806    -1.4236    -1.3462 H            1    LIG   0.0000
@<TRIPOS>BOND
   1        1        2 1
   2        2        3 1
   3        3        4 1
   4        4        5 1
   5        5        6 1
   6        6        7 1
   7        7        8 2
   8        8        9 1
   9        9       10 ar
  10       10       11 1
  11       11       12 1
  12       12       13 1
  13       13       14 1
  14       14       15 1
  15       15       16 1
  16       16       17 1
  17       17       12 1
  18       10       18 ar
  19       18       19 ar
  20       19       20 ar
  21       20       21 ar
  22       21        9 ar
  23       21        6 1
  24        5       22 1
  25       22       23 1
  26       22       24 1
  27       24        3 1
  28       24       25 1
  29        3       26 1
  30       22       27 1
  31       24       28 1
  32        1       29 1
  33        2       30 1
  34        2       31 1
  35        5       32 1
  36        7       33 1
  37       11       34 1
  38       12       35 1
  39       13       36 1
  40       13       37 1
  41       14       38 1
  42       14       39 1
  43       15       40 1
  44       15       41 1
  45       16       42 1
  46       16       43 1
  47       17       44 1
  48       17       45 1
  49       19       46 1
  50       23       47 1
  51       25       48 1

@<TRIPOS>MOLECULE
CHEMBL85549
  48   51
SMALL
USER_CHARGES
@<TRIPOS>ATOM
   1 O1           0.1006     1.5750     2.4406 O.3          1    LIG   0.0000
   2 C2          -0.5499     2.1212     1.3026 C.3          1    LIG   0.0000
   3 C3           0.0733     1.5491     0.0394 C.3          1    LIG   0.0000
   4 O4           1.4556     1.8246    -0.0978 O.3          1    LIG   0.0000
   5 C5           2.2010     0.7963     0.5413 C.3          1    LIG   0.0000
   6 N6           3.1890     0.3303    -0.4413 N.pl3        1    LIG   0.0000
   7 C7           4.0996    -0.6589    -0.2171 C.2          1    LIG   0.0000
   8 N8           4.8064    -0.8024    -1.3153 N.2          1    LIG   0.0000
   9 C9           4.3645     0.0881    -2.2514 C.ar         1    LIG   0.0000
  10 C10          4.7621     0.3456    -3.5599 C.ar         1    LIG   0.0000
  11 N11          5.8121    -0.4006    -4.1083 N.pl3        1    LIG   0.0000
  12 C12          6.2511    -0.1478    -5.4891 C.3          1    LIG   0.0000
  13 C13          5.1887    -0.6185    -6.4745 C.3          1    LIG   0.0000
  14 C14          5.5886    -0.3344    -7.9150 C.3          1    LIG   0.0000
  15 C15          6.9141     0.4075    -8.0177 C.3          1    LIG   0.0000
  16 C16          6.8378     1.6526    -7.1499 C.3          1    LIG   0.0000
  17 C17          6.4710     1.3405    -5.7075 C.3          1    LIG   0.0000
  18 N18          4.1459     1.2957    -4.2794 N.ar         1    LIG   0.0000
  19 C19          3.1420     2.0008    -3.7358 C.ar         1    LIG   0.0000
  20 N20          2.7494     1.7538    -2.4752 N.ar         1    LIG   0.0000
  21 C21          3.3317     0.8148    -1.7088 C.ar         1    LIG   0.0000
  22 C22          1.2030    -0.2914     0.8991 C.3          1    LIG   0.0000
  23 O23          1.7119    -1.5945     0.6501 O.3          1    LIG   0.0000
  24 C24          0.0305     0.0380    -0.0005 C.3          1    LIG   0.0000
  25 O25          0.2108    -0.4241    -1.3330 O.3          1    LIG   0.0000
  26 H           -0.4122     1.9105    -0.7567 H            1    LIG   0.0000
  27 H            0.9332    -0.2066     1.8583 H            1    LIG   0.0000
  28 H           -0.8252    -0.3065     0.3856 H            1    LIG   0.0000
  29 H           -0.3093     1.9514     3.2715 H            1    LIG   0.0000
  30 H           -0.4460     3.1158     1.3046 H            1    LIG   0.0000
  31 H           -1.5219     1.8875     1.3301 H            1    LIG   0.0000
  32 H            2.6543     1.1449     1.3616 H            1    LIG   0.0000
  33 H            4.2096    -1.1803     0.6291 H            1    LIG   0.0000
  34 H            6.2635    -1.1055    -3.5612 H            1    LIG   0.0000
  35 H            7.1051    -0.6388    -5.6614 H            1    LIG   0.0000
  36 H            4.3310    -0.1438    -6.2770 H            1    LIG   0.0000
  37 H            5.0577    -1.6036    -6.3632 H            1    LIG   0.0000
  38 H            4.8758     0.2223    -8.3416 H            1    LIG   0.0000
  39 H            5.6692    -1.2037    -8.4026 H            1    LIG   0.0000
  40 H            7.0819     0.6685    -8.9683 H            1    LIG   0.0000
  41 H            7.6562    -0.1817    -7.6978 H            1    LIG   0.0000
  42 H            7.7287     2.1066    -7.1625 H            1    LIG   0.0000
  43 H            6.1458     2.2660    -7.5305 H            1    LIG   0.0000
  44 H            7.2122     1.6489    -5.1112 H            1    LIG   0.0000
  45 H            5.6303     1.8294    -5.4744 H            1    LIG   0.0000
  46 H            2.6851     2.7117    -4.2703 H            1    LIG   0.0000
  47 H            2.4825    -1.7739     1.2617 H            1    LIG   0.0000
  48 H            0.1806    -1.4236    -1.3462 H            1    LIG   0.0000
@<TRIPOS>BOND
   1        1        2 1
   2        2        3 1
   3        3        4 1
   4        4        5 1
   5        5        6 1
   6        6        7 1
   7        7        8 2
   8        8        9 1
   9        9       10 ar
  10       10       11 1
  11       11       12 1
  12       12       13 1
  13       13       14 1
  14       14       15 1
  15       15       16 1
  16       16       17 1
  17       17       12 1
  18       10       18 ar
  19       18       19 ar
  20       19       20 ar
  21       20       21 ar
  22       21        9 ar
  23       21        6 1
  24        5       22 1
  25       22       23 1
  26       22       24 1
  27       24        3 1
  28       24       25 1
  29        3       26 1
  30       22       27 1
  31       24       28 1
  32        1       29 1
  33        2       30 1
  34        2       31 1
  35        5       32 1
  36        7       33 1
  37       11       34 1
  38       12       35 1
  39       13       36 1
  40       13       37 1
  41       14       38 1
  42       14       39 1
  43       15       40 1
  44       15       41 1
  45       16       42 1
  46       16       43 1
  47       17       44 1
  48       17       45 1
  49       19       46 1
  50       23       47 1
  51       25       48 1

@<TRIPOS>MOLECULE
CHEMBL85549
  48   51
SMALL
USER_CHARGES
@<TRIPOS>ATOM
   1 O1           0.1006     1.5750     2.4406 O.3          1    LIG   0.0000
   2 C2          -0.5499     2.1212     1.3026 C.3          1    LIG   0.0000
   3 C3           0.0733     1.5491     0.0394 C.3          1    LIG   0.0000
   4 O4           1.4556     1.8246    -0.0978 O.3          1    LIG   0.0000
   5 C5           2.2010     0.7963     0.5413 C.3          1    LIG   0.0000
   6 N6           3.1890     0.3303    -0.4413 N.pl3        1    LIG   0.0000
   7 C7           4.0996    -0.6589    -0.2171 C.2          1    LIG   0.0000
   8 N8           4.8064    -0.8024    -1.3153 N.2          1    LIG   0.0000
   9 C9           4.3645     0.0881    -2.2514 C.ar         1    LIG   0.0000
  10 C10          4.7621     0.3456    -3.5599 C.ar         1    LIG   0.0000
  11 N11          5.8121    -0.4006    -4.1083 N.pl3        1    LIG   0.0000
  12 C12          6.2511    -0.1478    -5.4891 C.3          1    LIG   0.0000
  13 C13          6.9499     1.2029    -5.5810 C.3          1    LIG   0.0000
  14 C14          7.4574     1.4819    -6.9882 C.3          1    LIG   0.0000
  15 C15          7.2049     0.3215    -7.9409 C.3          1    LIG   0.0000
  16 C16          7.7821    -0.9420    -7.3247 C.3          1    LIG   0.0000
  17 C17          7.2342    -1.2189    -5.9334 C.3          1    LIG   0.0000
  18 N18          4.1459     1.2957    -4.2794 N.ar         1    LIG   0.0000
  19 C19          3.1420     2.0008    -3.7358 C.ar         1    LIG   0.0000
  20 N20          2.7494     1.7538    -2.4752 N.ar         1    LIG   0.0000
  21 C21          3.3317     0.8148    -1.7088 C.ar         1    LIG   0.0000
  22 C22          1.2030    -0.2914     0.8991 C.3          1    LIG   0.0000
  23 O23          1.7119    -1.5945     0.6501 O.3          1    LIG   0.0000
  24 C24          0.0305     0.0380    -0.0005 C.3          1    LIG   0.0000
  25 O25          0.2108    -0.4241    -1.3330 O.3          1    LIG   0.0000
  26 H           -0.4122     1.9105    -0.7567 H            1    LIG   0.0000
  27 H            0.9332    -0.2066     1.8583 H            1    LIG   0.0000
  28 H           -0.8252    -0.3065     0.3856 H            1    LIG   0.0000
  29 H           -0.3093     1.9514     3.2715 H            1    LIG   0.0000
  30 H           -0.4460     3.1158     1.3046 H            1    LIG   0.0000
  31 H           -1.5219     1.8875     1.3301 H            1    LIG   0.0000
  32 H            2.6543     1.1449     1.3616 H            1    LIG   0.0000
  33 H            4.2096    -1.1803     0.6291 H            1    LIG   0.0000
  34 H            6.2635    -1.1055    -3.5612 H            1    LIG   0.0000
  35 H            5.4568    -0.1531    -6.0966 H            1    LIG   0.0000
  36 H            7.7255     1.2097    -4.9499 H            1    LIG   0.0000
  37 H            6.3031     1.9203    -5.3220 H            1    LIG   0.0000
  38 H            8.4416     1.6535    -6.9458 H            1    LIG   0.0000
  39 H            6.9924     2.2937    -7.3416 H            1    LIG   0.0000
  40 H            7.6494     0.5024    -8.8183 H            1    LIG   0.0000
  41 H            6.2214     0.2090    -8.0825 H            1    LIG   0.0000
  42 H            7.5596    -1.7170    -7.9163 H            1    LIG   0.0000
  43 H            8.7753    -0.8435    -7.2637 H            1    LIG   0.0000
  44 H            6.7679    -2.1036    -5.9395 H            1    LIG   0.0000
  45 H            7.9956    -1.2479    -5.2858 H            1    LIG   0.0000
  46 H            2.6851     2.7117    -4.2703 H            1    LIG   0.0000
  47 H            2.4825    -1.7739     1.2617 H            1    LIG   0.0000
  48 H            0.1806    -1.4236    -1.3462 H            1    LIG   0.0000
@<TRIPOS>BOND
   1        1        2 1
   2        2        3 1
   3        3        4 1
   4        4        5 1
   5        5        6 1
   6        6        7 1
   7        7        8 2
   8        8        9 1
   9        9       10 ar
  10       10       11 1
  11       11       12 1
  12       12       13 1
  13       13       14 1
  14       14       15 1
  15       15       16 1
  16       16       17 1
  17       17       12 1
  18       10       18 ar
  19       18       19 ar
  20       19       20 ar
  21       20       21 ar
  22       21        9 ar
  23       21        6 1
  24        5       22 1
  25       22       23 1
  26       22       24 1
  27       24        3 1
  28       24       25 1
  29        3       26 1
  30       22       27 1
  31       24       28 1
  32        1       29 1
  33        2       30 1
  34        2       31 1
  35        5       32 1
  36        7       33 1
  37       11       34 1
  38       12       35 1
  39       13       36 1
  40       13       37 1
  41       14       38 1
  42       14       39 1
  43       15       40 1
  44       15       41 1
  45       16       42 1
  46       16       43 1
  47       17       44 1
  48       17       45 1
  49       19       46 1
  50       23       47 1
  51       25       48 1

@<TRIPOS>MOLECULE
CHEMBL85549
  48   51
SMALL
USER_CHARGES
@<TRIPOS>ATOM
   1 O1           0.1006     1.5750     2.4406 O.3          1    LIG   0.0000
   2 C2          -0.5499     2.1212     1.3026 C.3          1    LIG   0.0000
   3 C3           0.0733     1.5491     0.0394 C.3          1    LIG   0.0000
   4 O4           1.4556     1.8246    -0.0978 O.3          1    LIG   0.0000
   5 C5           2.2010     0.7963     0.5413 C.3          1    LIG   0.0000
   6 N6           3.1890     0.3303    -0.4413 N.pl3        1    LIG   0.0000
   7 C7           4.0996    -0.6589    -0.2171 C.2          1    LIG   0.0000
   8 N8           4.8064    -0.8024    -1.3153 N.2          1    LIG   0.0000
   9 C9           4.3645     0.0881    -2.2514 C.ar         1    LIG   0.0000
  10 C10          4.7621     0.3456    -3.5599 C.ar         1    LIG   0.0000
  11 N11          5.8121    -0.4006    -4.1083 N.pl3        1    LIG   0.0000
  12 C12          6.2511    -0.1478    -5.4891 C.3          1    LIG   0.0000
  13 C13          7.4000    -1.0789    -5.8557 C.3          1    LIG   0.0000
  14 C14          7.8544    -0.8766    -7.2938 C.3          1    LIG   0.0000
  15 C15          7.0113     0.1532    -8.0333 C.3          1    LIG   0.0000
  16 C16          5.5491    -0.2404    -7.9063 C.3          1    LIG   0.0000
  17 C17          5.1091    -0.4027    -6.4597 C.3          1    LIG   0.0000
  18 N18          4.1459     1.2957    -4.2794 N.ar         1    LIG   0.0000
  19 C19          3.1420     2.0008    -3.7358 C.ar         1    LIG   0.0000
  20 N20          2.7494     1.7538    -2.4752 N.ar         1    LIG   0.0000
  21 C21          3.3317     0.8148    -1.7088 C.ar         1    LIG   0.0000
  22 C22          1.2030    -0.2914     0.8991 C.3          1    LIG   0.0000
  23 O23          1.7119    -1.5945     0.6501 O.3          1    LIG   0.0000
  24 C24          0.0305     0.0380    -0.0005 C.3          1    LIG   0.0000
  25 O25          0.2108    -0.4241    -1.3330 O.3          1    LIG   0.0000
  26 H           -0.4122     1.9105    -0.7567 H            1    LIG   0.0000
  27 H            0.9332    -0.2066     1.8583 H            1    LIG   0.0000
  28 H           -0.8252    -0.3065     0.3856 H            1    LIG   0.0000
  29 H           -0.3093     1.9514     3.2715 H            1    LIG   0.0000
  30 H           -0.4460     3.1158     1.3046 H            1    LIG   0.0000
  31 H           -1.5219     1.8875     1.3301 H            1    LIG   0.0000
  32 H            2.6543     1.1449     1.3616 H            1    LIG   0.0000
  33 H            4.2096    -1.1803     0.6291 H            1    LIG   0.0000
  34 H            6.2635    -1.1055    -3.5612 H            1    LIG   0.0000
  35 H            6.5531     0.8018    -5.5732 H            1    LIG   0.0000
  36 H            7.0985    -2.0255    -5.7416 H            1    LIG   0.0000
  37 H            8.1705    -0.8985    -5.2443 H            1    LIG   0.0000
  38 H            7.7895    -1.7501    -7.7763 H            1    LIG   0.0000
  39 H            8.8056    -0.5682    -7.2890 H            1    LIG   0.0000
  40 H            7.2728     0.1730    -8.9983 H            1    LIG   0.0000
  41 H            7.1535     1.0575    -7.6308 H            1    LIG   0.0000
  42 H            4.9884     0.4688    -8.3336 H            1    LIG   0.0000
  43 H            5.4087    -1.1084    -8.3827 H            1    LIG   0.0000
  44 H            4.3728     0.2471    -6.2707 H            1    LIG   0.0000
  45 H            4.7732    -1.3351    -6.3263 H            1    LIG   0.0000
  46 H            2.6851     2.7117    -4.2703 H            1    LIG   0.0000
  47 H            2.4825    -1.7739     1.2617 H            1    LIG   0.0000
  48 H            0.1806    -1.4236    -1.3462 H            1    LIG   0.0000
@<TRIPOS>BOND
   1        1        2 1
   2        2        3 1
   3        3        4 1
   4        4        5 1
   5        5        6 1
   6        6        7 1
   7        7        8 2
   8        8        9 1
   9        9       10 ar
  10       10       11 1
  11       11       12 1
  12       12       13 1
  13       13       14 1
  14       14       15 1
  15       15       16 1
  16       16       17 1
  17       17       12 1
  18       10       18 ar
  19       18       19 ar
  20       19       20 ar
  21       20       21 ar
  22       21        9 ar
  23       21        6 1
  24        5       22 1
  25       22       23 1
  26       22       24 1
  27       24        3 1
  28       24       25 1
  29        3       26 1
  30       22       27 1
  31       24       28 1
  32        1       29 1
  33        2       30 1
  34        2       31 1
  35        5       32 1
  36        7       33 1
  37       11       34 1
  38       12       35 1
  39       13       36 1
  40       13       37 1
  41       14       38 1
  42       14       39 1
  43       15       40 1
  44       15       41 1
  45       16       42 1
  46       16       43 1
  47       17       44 1
  48       17       45 1
  49       19       46 1
  50       23       47 1
  51       25       48 1

@<TRIPOS>MOLECULE
CHEMBL85549
  48   51
SMALL
USER_CHARGES
@<TRIPOS>ATOM
   1 O1           0.1006     1.5750     2.4406 O.3          1    LIG   0.0000
   2 C2          -0.5499     2.1212     1.3026 C.3          1    LIG   0.0000
   3 C3           0.0733     1.5491     0.0394 C.3          1    LIG   0.0000
   4 O4           1.4556     1.8246    -0.0978 O.3          1    LIG   0.0000
   5 C5           2.2010     0.7963     0.5413 C.3          1    LIG   0.0000
   6 N6           3.1890     0.3303    -0.4413 N.pl3        1    LIG   0.0000
   7 C7           4.0996    -0.6589    -0.2171 C.2          1    LIG   0.0000
   8 N8           4.8064    -0.8024    -1.3153 N.2          1    LIG   0.0000
   9 C9           4.3645     0.0881    -2.2514 C.ar         1    LIG   0.0000
  10 C10          4.7621     0.3456    -3.5599 C.ar         1    LIG   0.0000
  11 N11          5.8121    -0.4006    -4.1083 N.pl3        1    LIG   0.0000
  12 C12          6.2505    -0.1482    -5.4873 C.3          1    LIG   0.0000
  13 C13          5.1856    -0.6201    -6.4723 C.3          1    LIG   0.0000
  14 C14          5.6378    -0.4564    -7.9159 C.3          1    LIG   0.0000
  15 C15          7.0420     0.1173    -8.0209 C.3          1    LIG   0.0000
  16 C16          7.9755    -0.7705    -7.2116 C.3          1    LIG   0.0000
  17 C17          7.5120    -0.9482    -5.7721 C.3          1    LIG   0.0000
  18 N18          4.1459     1.2957    -4.2794 N.ar         1    LIG   0.0000
  19 C19          3.1420     2.0008    -3.7358 C.ar         1    LIG   0.0000
  20 N20          2.7494     1.7538    -2.4752 N.ar         1    LIG   0.0000
  21 C21          3.3317     0.8148    -1.7088 C.ar         1    LIG   0.0000
  22 C22          1.2030    -0.2914     0.8991 C.3          1    LIG   0.0000
  23 O23          1.7119    -1.5945     0.6501 O.3          1    LIG   0.0000
  24 C24          0.0305     0.0380    -0.0005 C.3          1    LIG   0.0000
  25 O25          0.2108    -0.4241    -1.3330 O.3          1    LIG   0.0000
  26 H           -0.4122     1.9105    -0.7567 H            1    LIG   0.0000
  27 H            0.9332    -0.2066     1.8583 H            1    LIG   0.0000
  28 H           -0.8252    -0.3065     0.3856 H            1    LIG   0.0000
  29 H           -0.3093     1.9514     3.2715 H            1    LIG   0.0000
  30 H           -0.4460     3.1158     1.3046 H            1    LIG   0.0000
  31 H           -1.5219     1.8875     1.3301 H            1    LIG   0.0000
  32 H            2.6543     1.1449     1.3616 H            1    LIG   0.0000
  33 H            4.2096    -1.1803     0.6291 H            1    LIG   0.0000
  34 H            6.2635    -1.1055    -3.5612 H            1    LIG   0.0000
  35 H            6.4278     0.8275    -5.6167 H            1    LIG   0.0000
  36 H            4.3536    -0.0835    -6.3311 H            1    LIG   0.0000
  37 H            4.9921    -1.5862    -6.3014 H            1    LIG   0.0000
  38 H            5.0034     0.1591    -8.3835 H            1    LIG   0.0000
  39 H            5.6224    -1.3518    -8.3609 H            1    LIG   0.0000
  40 H            7.0565     1.0477    -7.6547 H            1    LIG   0.0000
  41 H            7.3320     0.1311    -8.9778 H            1    LIG   0.0000
  42 H            8.0202    -1.6695    -7.6471 H            1    LIG   0.0000
  43 H            8.8861    -0.3571    -7.2063 H            1    LIG   0.0000
  44 H            7.3258    -1.9170    -5.6084 H            1    LIG   0.0000
  45 H            8.2377    -0.6398    -5.1571 H            1    LIG   0.0000
  46 H            2.6851     2.7117    -4.2703 H            1    LIG   0.0000
  47 H            2.4825    -1.7739     1.2617 H            1    LIG   0.0000
  48 H            0.1806    -1.4236    -1.3462 H            1    LIG   0.0000
@<TRIPOS>BOND
   1        1        2 1
   2        2        3 1
   3        3        4 1
   4        4        5 1
   5        5        6 1
   6        6        7 1
   7        7        8 2
   8        8        9 1
   9        9       10 ar
  10       10       11 1
  11       11       12 1
  12       12       13 1
  13       13       14 1
  14       14       15 1
  15       15       16 1
  16       16       17 1
  17       17       12 1
  18       10       18 ar
  19       18       19 ar
  20       19       20 ar
  21       20       21 ar
  22       21        9 ar
  23       21        6 1
  24        5       22 1
  25       22       23 1
  26       22       24 1
  27       24        3 1
  28       24       25 1
  29        3       26 1
  30       22       27 1
  31       24       28 1
  32        1       29 1
  33        2       30 1
  34        2       31 1
  35        5       32 1
  36        7       33 1
  37       11       34 1
  38       12       35 1
  39       13       36 1
  40       13       37 1
  41       14       38 1
  42       14       39 1
  43       15       40 1
  44       15       41 1
  45       16       42 1
  46       16       43 1
  47       17       44 1
  48       17       45 1
  49       19       46 1
  50       23       47 1
  51       25       48 1

@<TRIPOS>MOLECULE
CHEMBL85549
  48   51
SMALL
USER_CHARGES
@<TRIPOS>ATOM
   1 O1           0.1006     1.5750     2.4406 O.3          1    LIG   0.0000
   2 C2          -0.5499     2.1212     1.3026 C.3          1    LIG   0.0000
   3 C3           0.0733     1.5491     0.0394 C.3          1    LIG   0.0000
   4 O4           1.4556     1.8246    -0.0978 O.3          1    LIG   0.0000
   5 C5           2.2010     0.7963     0.5413 C.3          1    LIG   0.0000
   6 N6           3.1890     0.3303    -0.4413 N.pl3        1    LIG   0.0000
   7 C7           4.0996    -0.6589    -0.2171 C.2          1    LIG   0.0000
   8 N8           4.8064    -0.8024    -1.3153 N.2          1    LIG   0.0000
   9 C9           4.3645     0.0881    -2.2514 C.ar         1    LIG   0.0000
  10 C10          4.7621     0.3456    -3.5599 C.ar         1    LIG   0.0000
  11 N11          5.8121    -0.4006    -4.1083 N.pl3        1    LIG   0.0000
  12 C12          6.2505    -0.1482    -5.4873 C.3          1    LIG   0.0000
  13 C13          6.9499     1.2046    -5.5773 C.3          1    LIG   0.0000
  14 C14          7.3431     1.5442    -7.0073 C.3          1    LIG   0.0000
  15 C15          6.9269     0.4646    -7.9939 C.3          1    LIG   0.0000
  16 C16          5.4315     0.2337    -7.8366 C.3          1    LIG   0.0000
  17 C17          5.0368    -0.0882    -6.4016 C.3          1    LIG   0.0000
  18 N18          4.1459     1.2957    -4.2794 N.ar         1    LIG   0.0000
  19 C19          3.1420     2.0008    -3.7358 C.ar         1    LIG   0.0000
  20 N20          2.7494     1.7538    -2.4752 N.ar         1    LIG   0.0000
  21 C21          3.3317     0.8148    -1.7088 C.ar         1    LIG   0.0000
  22 C22          1.2030    -0.2914     0.8991 C.3          1    LIG   0.0000
  23 O23          1.7119    -1.5945     0.6501 O.3          1    LIG   0.0000
  24 C24          0.0305     0.0380    -0.0005 C.3          1    LIG   0.0000
  25 O25          0.2108    -0.4241    -1.3330 O.3          1    LIG   0.0000
  26 H           -0.4122     1.9105    -0.7567 H            1    LIG   0.0000
  27 H            0.9332    -0.2066     1.8583 H            1    LIG   0.0000
  28 H           -0.8252    -0.3065     0.3856 H            1    LIG   0.0000
  29 H           -0.3093     1.9514     3.2715 H            1    LIG   0.0000
  30 H           -0.4460     3.1158     1.3046 H            1    LIG   0.0000
  31 H           -1.5219     1.8875     1.3301 H            1    LIG   0.0000
  32 H            2.6543     1.1449     1.3616 H            1    LIG   0.0000
  33 H            4.2096    -1.1803     0.6291 H            1    LIG   0.0000
  34 H            6.2635    -1.1055    -3.5612 H            1    LIG   0.0000
  35 H            6.8695    -0.8738    -5.7877 H            1    LIG   0.0000
  36 H            7.7744     1.1808    -5.0119 H            1    LIG   0.0000
  37 H            6.3313     1.9120    -5.2351 H            1    LIG   0.0000
  38 H            8.3362     1.6531    -7.0502 H            1    LIG   0.0000
  39 H            6.9021     2.4035    -7.2664 H            1    LIG   0.0000
  40 H            7.4231    -0.3817    -7.7998 H            1    LIG   0.0000
  41 H            7.1279     0.7623    -8.9272 H            1    LIG   0.0000
  42 H            4.9477     1.0603    -8.1242 H            1    LIG   0.0000
  43 H            5.1621    -0.5309    -8.4221 H            1    LIG   0.0000
  44 H            4.4149     0.6209    -6.0693 H            1    LIG   0.0000
  45 H            4.5728    -0.9738    -6.3835 H            1    LIG   0.0000
  46 H            2.6851     2.7117    -4.2703 H            1    LIG   0.0000
  47 H            2.4825    -1.7739     1.2617 H            1    LIG   0.0000
  48 H            0.1806    -1.4236    -1.3462 H            1    LIG   0.0000
@<TRIPOS>BOND
   1        1        2 1
   2        2        3 1
   3        3        4 1
   4        4        5 1
   5        5        6 1
   6        6        7 1
   7        7        8 2
   8        8        9 1
   9        9       10 ar
  10       10       11 1
  11       11       12 1
  12       12       13 1
  13       13       14 1
  14       14       15 1
  15       15       16 1
  16       16       17 1
  17       17       12 1
  18       10       18 ar
  19       18       19 ar
  20       19       20 ar
  21       20       21 ar
  22       21        9 ar
  23       21        6 1
  24        5       22 1
  25       22       23 1
  26       22       24 1
  27       24        3 1
  28       24       25 1
  29        3       26 1
  30       22       27 1
  31       24       28 1
  32        1       29 1
  33        2       30 1
  34        2       31 1
  35        5       32 1
  36        7       33 1
  37       11       34 1
  38       12       35 1
  39       13       36 1
  40       13       37 1
  41       14       38 1
  42       14       39 1
  43       15       40 1
  44       15       41 1
  45       16       42 1
  46       16       43 1
  47       17       44 1
  48       17       45 1
  49       19       46 1
  50       23       47 1
  51       25       48 1

@<TRIPOS>MOLECULE
CHEMBL85549
  48   51
SMALL
USER_CHARGES
@<TRIPOS>ATOM
   1 O1           0.1006     1.5750     2.4406 O.3          1    LIG   0.0000
   2 C2          -0.5499     2.1212     1.3026 C.3          1    LIG   0.0000
   3 C3           0.0733     1.5491     0.0394 C.3          1    LIG   0.0000
   4 O4           1.4556     1.8246    -0.0978 O.3          1    LIG   0.0000
   5 C5           2.2010     0.7963     0.5413 C.3          1    LIG   0.0000
   6 N6           3.1890     0.3303    -0.4413 N.pl3        1    LIG   0.0000
   7 C7           4.0996    -0.6589    -0.2171 C.2          1    LIG   0.0000
   8 N8           4.8064    -0.8024    -1.3153 N.2          1    LIG   0.0000
   9 C9           4.3645     0.0881    -2.2514 C.ar         1    LIG   0.0000
  10 C10          4.7621     0.3456    -3.5599 C.ar         1    LIG   0.0000
  11 N11          5.8121    -0.4006    -4.1083 N.pl3        1    LIG   0.0000
  12 C12          6.2505    -0.1482    -5.4873 C.3          1    LIG   0.0000
  13 C13          7.4008    -1.0813    -5.8524 C.3          1    LIG   0.0000
  14 C14          7.9432    -0.7930    -7.2445 C.3          1    LIG   0.0000
  15 C15          7.2206     0.3623    -7.9192 C.3          1    LIG   0.0000
  16 C16          7.2999     1.5703    -6.9978 C.3          1    LIG   0.0000
  17 C17          6.7737     1.2753    -5.5997 C.3          1    LIG   0.0000
  18 N18          4.1459     1.2957    -4.2794 N.ar         1    LIG   0.0000
  19 C19          3.1420     2.0008    -3.7358 C.ar         1    LIG   0.0000
  20 N20          2.7494     1.7538    -2.4752 N.ar         1    LIG   0.0000
  21 C21          3.3317     0.8148    -1.7088 C.ar         1    LIG   0.0000
  22 C22          1.2030    -0.2914     0.8991 C.3          1    LIG   0.0000
  23 O23          1.7119    -1.5945     0.6501 O.3          1    LIG   0.0000
  24 C24          0.0305     0.0380    -0.0005 C.3          1    LIG   0.0000
  25 O25          0.2108    -0.4241    -1.3330 O.3          1    LIG   0.0000
  26 H           -0.4122     1.9105    -0.7567 H            1    LIG   0.0000
  27 H            0.9332    -0.2066     1.8583 H            1    LIG   0.0000
  28 H           -0.8252    -0.3065     0.3856 H            1    LIG   0.0000
  29 H           -0.3093     1.9514     3.2715 H            1    LIG   0.0000
  30 H           -0.4460     3.1158     1.3046 H            1    LIG   0.0000
  31 H           -1.5219     1.8875     1.3301 H            1    LIG   0.0000
  32 H            2.6543     1.1449     1.3616 H            1    LIG   0.0000
  33 H            4.2096    -1.1803     0.6291 H            1    LIG   0.0000
  34 H            6.2635    -1.1055    -3.5612 H            1    LIG   0.0000
  35 H            5.4871    -0.2829    -6.1191 H            1    LIG   0.0000
  36 H            7.0735    -2.0257    -5.8219 H            1    LIG   0.0000
  37 H            8.1377    -0.9622    -5.1870 H            1    LIG   0.0000
  38 H            7.8350    -1.6123    -7.8075 H            1    LIG   0.0000
  39 H            8.9141    -0.5653    -7.1702 H            1    LIG   0.0000
  40 H            6.2638     0.1182    -8.0769 H            1    LIG   0.0000
  41 H            7.6593     0.5728    -8.7929 H            1    LIG   0.0000
  42 H            8.2554     1.8568    -6.9267 H            1    LIG   0.0000
  43 H            6.7583     2.3116    -7.3942 H            1    LIG   0.0000
  44 H            7.5151     1.4016    -4.9406 H            1    LIG   0.0000
  45 H            6.0308     1.9115    -5.3917 H            1    LIG   0.0000
  46 H            2.6851     2.7117    -4.2703 H            1    LIG   0.0000
  47 H            2.4825    -1.7739     1.2617 H            1    LIG   0.0000
  48 H            0.1806    -1.4236    -1.3462 H            1    LIG   0.0000
@<TRIPOS>BOND
   1        1        2 1
   2        2        3 1
   3        3        4 1
   4        4        5 1
   5        5        6 1
   6        6        7 1
   7        7        8 2
   8        8        9 1
   9        9       10 ar
  10       10       11 1
  11       11       12 1
  12       12       13 1
  13       13       14 1
  14       14       15 1
  15       15       16 1
  16       16       17 1
  17       17       12 1
  18       10       18 ar
  19       18       19 ar
  20       19       20 ar
  21       20       21 ar
  22       21        9 ar
  23       21        6 1
  24        5       22 1
  25       22       23 1
  26       22       24 1
  27       24        3 1
  28       24       25 1
  29        3       26 1
  30       22       27 1
  31       24       28 1
  32        1       29 1
  33        2       30 1
  34        2       31 1
  35        5       32 1
  36        7       33 1
  37       11       34 1
  38       12       35 1
  39       13       36 1
  40       13       37 1
  41       14       38 1
  42       14       39 1
  43       15       40 1
  44       15       41 1
  45       16       42 1
  46       16       43 1
  47       17       44 1
  48       17       45 1
  49       19       46 1
  50       23       47 1
  51       25       48 1

@<TRIPOS>MOLECULE
CHEMBL85549
  48   51
SMALL
USER_CHARGES
@<TRIPOS>ATOM
   1 O1           2.3854    -0.1973    -1.6953 O.3          1    LIG   0.0000
   2 C2           3.1332     0.2466    -0.5727 C.3          1    LIG   0.0000
   3 C3           2.1852     0.7595     0.4959 C.3          1    LIG   0.0000
   4 O4           1.4508     1.8350    -0.0691 O.3          1    LIG   0.0000
   5 C5           0.0644     1.5666     0.0113 C.3          1    LIG   0.0000
   6 N6          -0.5631     2.1614     1.1994 N.pl3        1    LIG   0.0000
   7 C7          -1.8604     2.5739     1.2675 C.2          1    LIG   0.0000
   8 N8          -2.0630     3.0442     2.4775 N.2          1    LIG   0.0000
   9 C9          -0.9063     2.9435     3.1963 C.ar         1    LIG   0.0000
  10 C10         -0.5843     3.2891     4.5052 C.ar         1    LIG   0.0000
  11 N11         -1.5714     3.8593     5.3179 N.pl3        1    LIG   0.0000
  12 C12         -1.2563     4.2334     6.7049 C.3          1    LIG   0.0000
  13 C13         -0.3181     5.4336     6.7270 C.3          1    LIG   0.0000
  14 C14         -0.0024     5.8780     8.1478 C.3          1    LIG   0.0000
  15 C15         -0.7496     5.0629     9.1943 C.3          1    LIG   0.0000
  16 C16         -2.2320     5.0946     8.8614 C.3          1    LIG   0.0000
  17 C17         -2.5263     4.6134     7.4492 C.3          1    LIG   0.0000
  18 N18          0.6545     3.0778     4.9752 N.ar         1    LIG   0.0000
  19 C19          1.5871     2.5308     4.1804 C.ar         1    LIG   0.0000
  20 N20          1.2816     2.1897     2.9177 N.ar         1    LIG   0.0000
  21 C21          0.0575     2.3798     2.3947 C.ar         1    LIG   0.0000
  22 C22          0.0117     0.0546     0.0042 C.3          1    LIG   0.0000
  23 O23         -1.2211    -0.4536     0.4961 O.3          1    LIG   0.0000
  24 C24          1.1851    -0.3144     0.8892 C.3          1    LIG   0.0000
  25 O25          0.8707    -0.2259     2.2730 O.3          1    LIG   0.0000
  26 H            2.6974     1.0696     1.2969 H            1    LIG   0.0000
  27 H            0.1696    -0.2838    -0.9235 H            1    LIG   0.0000
  28 H            1.5314    -1.2242     0.6604 H            1    LIG   0.0000
  29 H            3.0100    -0.5353    -2.3993 H            1    LIG   0.0000
  30 H            3.7495     0.9826    -0.8527 H            1    LIG   0.0000
  31 H            3.6680    -0.5147    -0.2062 H            1    LIG   0.0000
  32 H           -0.3871     1.9161    -0.8097 H            1    LIG   0.0000
  33 H           -2.5350     2.5272     0.5308 H            1    LIG   0.0000
  34 H           -2.4907     4.0122     4.9553 H            1    LIG   0.0000
  35 H           -0.8192     3.4613     7.1663 H            1    LIG   0.0000
  36 H           -0.7509     6.1918     6.2393 H            1    LIG   0.0000
  37 H            0.5352     5.1859     6.2682 H            1    LIG   0.0000
  38 H           -0.2588     6.8395     8.2473 H            1    LIG   0.0000
  39 H            0.9801     5.7771     8.3043 H            1    LIG   0.0000
  40 H           -0.5988     5.4580    10.1005 H            1    LIG   0.0000
  41 H           -0.4216     4.1183     9.1837 H            1    LIG   0.0000
  42 H           -2.7178     4.5061     9.5078 H            1    LIG   0.0000
  43 H           -2.5609     6.0344     8.9543 H            1    LIG   0.0000
  44 H           -3.1243     3.8134     7.4980 H            1    LIG   0.0000
  45 H           -2.9885     5.3449     6.9479 H            1    LIG   0.0000
  46 H            2.5116     2.3768     4.5291 H            1    LIG   0.0000
  47 H           -1.9618    -0.1847    -0.1195 H            1    LIG   0.0000
  48 H            0.2123    -0.9399     2.5115 H            1    LIG   0.0000
@<TRIPOS>BOND
   1        1        2 1
   2        2        3 1
   3        3        4 1
   4        4        5 1
   5        5        6 1
   6        6        7 1
   7        7        8 2
   8        8        9 1
   9        9       10 ar
  10       10       11 1
  11       11       12 1
  12       12       13 1
  13       13       14 1
  14       14       15 1
  15       15       16 1
  16       16       17 1
  17       17       12 1
  18       10       18 ar
  19       18       19 ar
  20       19       20 ar
  21       20       21 ar
  22       21        9 ar
  23       21        6 1
  24        5       22 1
  25       22       23 1
  26       22       24 1
  27       24        3 1
  28       24       25 1
  29        3       26 1
  30       22       27 1
  31       24       28 1
  32        1       29 1
  33        2       30 1
  34        2       31 1
  35        5       32 1
  36        7       33 1
  37       11       34 1
  38       12       35 1
  39       13       36 1
  40       13       37 1
  41       14       38 1
  42       14       39 1
  43       15       40 1
  44       15       41 1
  45       16       42 1
  46       16       43 1
  47       17       44 1
  48       17       45 1
  49       19       46 1
  50       23       47 1
  51       25       48 1

@<TRIPOS>MOLECULE
CHEMBL85549
  48   51
SMALL
USER_CHARGES
@<TRIPOS>ATOM
   1 O1           2.3854    -0.1973    -1.6953 O.3          1    LIG   0.0000
   2 C2           3.1332     0.2466    -0.5727 C.3          1    LIG   0.0000
   3 C3           2.1852     0.7595     0.4959 C.3          1    LIG   0.0000
   4 O4           1.4508     1.8350    -0.0691 O.3          1    LIG   0.0000
   5 C5           0.0644     1.5666     0.0113 C.3          1    LIG   0.0000
   6 N6          -0.5631     2.1614     1.1994 N.pl3        1    LIG   0.0000
   7 C7          -1.8604     2.5739     1.2675 C.2          1    LIG   0.0000
   8 N8          -2.0630     3.0442     2.4775 N.2          1    LIG   0.0000
   9 C9          -0.9063     2.9435     3.1963 C.ar         1    LIG   0.0000
  10 C10         -0.5843     3.2891     4.5052 C.ar         1    LIG   0.0000
  11 N11         -1.5714     3.8593     5.3179 N.pl3        1    LIG   0.0000
  12 C12         -1.2563     4.2334     6.7049 C.3          1    LIG   0.0000
  13 C13         -2.4840     4.8298     7.3819 C.3          1    LIG   0.0000
  14 C14         -2.2091     5.1906     8.8344 C.3          1    LIG   0.0000
  15 C15         -0.8029     4.8080     9.2752 C.3          1    LIG   0.0000
  16 C16         -0.5828     3.3377     8.9607 C.3          1    LIG   0.0000
  17 C17         -0.8295     3.0078     7.4968 C.3          1    LIG   0.0000
  18 N18          0.6545     3.0778     4.9752 N.ar         1    LIG   0.0000
  19 C19          1.5871     2.5308     4.1804 C.ar         1    LIG   0.0000
  20 N20          1.2816     2.1897     2.9177 N.ar         1    LIG   0.0000
  21 C21          0.0575     2.3798     2.3947 C.ar         1    LIG   0.0000
  22 C22          0.0117     0.0546     0.0042 C.3          1    LIG   0.0000
  23 O23         -1.2211    -0.4536     0.4961 O.3          1    LIG   0.0000
  24 C24          1.1851    -0.3144     0.8892 C.3          1    LIG   0.0000
  25 O25          0.8707    -0.2259     2.2730 O.3          1    LIG   0.0000
  26 H            2.6974     1.0696     1.2969 H            1    LIG   0.0000
  27 H            0.1696    -0.2838    -0.9235 H            1    LIG   0.0000
  28 H            1.5314    -1.2242     0.6604 H            1    LIG   0.0000
  29 H            3.0100    -0.5353    -2.3993 H            1    LIG   0.0000
  30 H            3.7495     0.9826    -0.8527 H            1    LIG   0.0000
  31 H            3.6680    -0.5147    -0.2062 H            1    LIG   0.0000
  32 H           -0.3871     1.9161    -0.8097 H            1    LIG   0.0000
  33 H           -2.5350     2.5272     0.5308 H            1    LIG   0.0000
  34 H           -2.4907     4.0122     4.9553 H            1    LIG   0.0000
  35 H           -0.5158     4.9054     6.7079 H            1    LIG   0.0000
  36 H           -3.2279     4.1623     7.3493 H            1    LIG   0.0000
  37 H           -2.7560     5.6563     6.8889 H            1    LIG   0.0000
  38 H           -2.8682     4.7113     9.4140 H            1    LIG   0.0000
  39 H           -2.3227     6.1778     8.9465 H            1    LIG   0.0000
  40 H           -0.7042     4.9612    10.2584 H            1    LIG   0.0000
  41 H           -0.1323     5.3625     8.7824 H            1    LIG   0.0000
  42 H            0.3616     3.0998     9.1875 H            1    LIG   0.0000
  43 H           -1.2074     2.7936     9.5209 H            1    LIG   0.0000
  44 H            0.0136     2.6442     7.1006 H            1    LIG   0.0000
  45 H           -1.5504     2.3173     7.4378 H            1    LIG   0.0000
  46 H            2.5116     2.3768     4.5291 H            1    LIG   0.0000
  47 H           -1.9618    -0.1847    -0.1195 H            1    LIG   0.0000
  48 H            0.2123    -0.9399     2.5115 H            1    LIG   0.0000
@<TRIPOS>BOND
   1        1        2 1
   2        2        3 1
   3        3        4 1
   4        4        5 1
   5        5        6 1
   6        6        7 1
   7        7        8 2
   8        8        9 1
   9        9       10 ar
  10       10       11 1
  11       11       12 1
  12       12       13 1
  13       13       14 1
  14       14       15 1
  15       15       16 1
  16       16       17 1
  17       17       12 1
  18       10       18 ar
  19       18       19 ar
  20       19       20 ar
  21       20       21 ar
  22       21        9 ar
  23       21        6 1
  24        5       22 1
  25       22       23 1
  26       22       24 1
  27       24        3 1
  28       24       25 1
  29        3       26 1
  30       22       27 1
  31       24       28 1
  32        1       29 1
  33        2       30 1
  34        2       31 1
  35        5       32 1
  36        7       33 1
  37       11       34 1
  38       12       35 1
  39       13       36 1
  40       13       37 1
  41       14       38 1
  42       14       39 1
  43       15       40 1
  44       15       41 1
  45       16       42 1
  46       16       43 1
  47       17       44 1
  48       17       45 1
  49       19       46 1
  50       23       47 1
  51       25       48 1

@<TRIPOS>MOLECULE
CHEMBL85549
  48   51
SMALL
USER_CHARGES
@<TRIPOS>ATOM
   1 O1           2.3854    -0.1973    -1.6953 O.3          1    LIG   0.0000
   2 C2           3.1332     0.2466    -0.5727 C.3          1    LIG   0.0000
   3 C3           2.1852     0.7595     0.4959 C.3          1    LIG   0.0000
   4 O4           1.4508     1.8350    -0.0691 O.3          1    LIG   0.0000
   5 C5           0.0644     1.5666     0.0113 C.3          1    LIG   0.0000
   6 N6          -0.5631     2.1614     1.1994 N.pl3        1    LIG   0.0000
   7 C7          -1.8604     2.5739     1.2675 C.2          1    LIG   0.0000
   8 N8          -2.0630     3.0442     2.4775 N.2          1    LIG   0.0000
   9 C9          -0.9063     2.9435     3.1963 C.ar         1    LIG   0.0000
  10 C10         -0.5843     3.2891     4.5052 C.ar         1    LIG   0.0000
  11 N11         -1.5714     3.8593     5.3179 N.pl3        1    LIG   0.0000
  12 C12         -1.2567     4.2329     6.7032 C.3          1    LIG   0.0000
  13 C13         -1.0522     2.9818     7.5516 C.3          1    LIG   0.0000
  14 C14         -0.8098     3.3234     9.0144 C.3          1    LIG   0.0000
  15 C15         -0.8499     4.8213     9.2731 C.3          1    LIG   0.0000
  16 C16         -2.1798     5.3527     8.7599 C.3          1    LIG   0.0000
  17 C17         -2.4294     4.9945     7.3011 C.3          1    LIG   0.0000
  18 N18          0.6545     3.0778     4.9752 N.ar         1    LIG   0.0000
  19 C19          1.5871     2.5308     4.1804 C.ar         1    LIG   0.0000
  20 N20          1.2816     2.1897     2.9177 N.ar         1    LIG   0.0000
  21 C21          0.0575     2.3798     2.3947 C.ar         1    LIG   0.0000
  22 C22          0.0117     0.0546     0.0042 C.3          1    LIG   0.0000
  23 O23         -1.2211    -0.4536     0.4961 O.3          1    LIG   0.0000
  24 C24          1.1851    -0.3144     0.8892 C.3          1    LIG   0.0000
  25 O25          0.8707    -0.2259     2.2730 O.3          1    LIG   0.0000
  26 H            2.6974     1.0696     1.2969 H            1    LIG   0.0000
  27 H            0.1696    -0.2838    -0.9235 H            1    LIG   0.0000
  28 H            1.5314    -1.2242     0.6604 H            1    LIG   0.0000
  29 H            3.0100    -0.5353    -2.3993 H            1    LIG   0.0000
  30 H            3.7495     0.9826    -0.8527 H            1    LIG   0.0000
  31 H            3.6680    -0.5147    -0.2062 H            1    LIG   0.0000
  32 H           -0.3871     1.9161    -0.8097 H            1    LIG   0.0000
  33 H           -2.5350     2.5272     0.5308 H            1    LIG   0.0000
  34 H           -2.4907     4.0122     4.9553 H            1    LIG   0.0000
  35 H           -0.4333     4.8000     6.7259 H            1    LIG   0.0000
  36 H           -0.2618     2.4791     7.2015 H            1    LIG   0.0000
  37 H           -1.8685     2.4081     7.4843 H            1    LIG   0.0000
  38 H            0.0889     2.9753     9.2810 H            1    LIG   0.0000
  39 H           -1.5159     2.8826     9.5685 H            1    LIG   0.0000
  40 H           -0.0969     5.2690     8.7909 H            1    LIG   0.0000
  41 H           -0.7697     4.9983    10.2540 H            1    LIG   0.0000
  42 H           -2.9155     4.9651     9.3153 H            1    LIG   0.0000
  43 H           -2.1832     6.3486     8.8503 H            1    LIG   0.0000
  44 H           -3.2497     4.4255     7.2424 H            1    LIG   0.0000
  45 H           -2.5696     5.8361     6.7796 H            1    LIG   0.0000
  46 H            2.5116     2.3768     4.5291 H            1    LIG   0.0000
  47 H           -1.9618    -0.1847    -0.1195 H            1    LIG   0.0000
  48 H            0.2123    -0.9399     2.5115 H            1    LIG   0.0000
@<TRIPOS>BOND
   1        1        2 1
   2        2        3 1
   3        3        4 1
   4        4        5 1
   5        5        6 1
   6        6        7 1
   7        7        8 2
   8        8        9 1
   9        9       10 ar
  10       10       11 1
  11       11       12 1
  12       12       13 1
  13       13       14 1
  14       14       15 1
  15       15       16 1
  16       16       17 1
  17       17       12 1
  18       10       18 ar
  19       18       19 ar
  20       19       20 ar
  21       20       21 ar
  22       21        9 ar
  23       21        6 1
  24        5       22 1
  25       22       23 1
  26       22       24 1
  27       24        3 1
  28       24       25 1
  29        3       26 1
  30       22       27 1
  31       24       28 1
  32        1       29 1
  33        2       30 1
  34        2       31 1
  35        5       32 1
  36        7       33 1
  37       11       34 1
  38       12       35 1
  39       13       36 1
  40       13       37 1
  41       14       38 1
  42       14       39 1
  43       15       40 1
  44       15       41 1
  45       16       42 1
  46       16       43 1
  47       17       44 1
  48       17       45 1
  49       19       46 1
  50       23       47 1
  51       25       48 1

@<TRIPOS>MOLECULE
CHEMBL85549
  48   51
SMALL
USER_CHARGES
@<TRIPOS>ATOM
   1 O1           2.3854    -0.1973    -1.6953 O.3          1    LIG   0.0000
   2 C2           3.1332     0.2466    -0.5727 C.3          1    LIG   0.0000
   3 C3           2.1852     0.7595     0.4959 C.3          1    LIG   0.0000
   4 O4           1.4508     1.8350    -0.0691 O.3          1    LIG   0.0000
   5 C5           0.0644     1.5666     0.0113 C.3          1    LIG   0.0000
   6 N6          -0.5631     2.1614     1.1994 N.pl3        1    LIG   0.0000
   7 C7          -1.8604     2.5739     1.2675 C.2          1    LIG   0.0000
   8 N8          -2.0630     3.0442     2.4775 N.2          1    LIG   0.0000
   9 C9          -0.9063     2.9435     3.1963 C.ar         1    LIG   0.0000
  10 C10         -0.5843     3.2891     4.5052 C.ar         1    LIG   0.0000
  11 N11         -1.5714     3.8593     5.3179 N.pl3        1    LIG   0.0000
  12 C12         -1.2567     4.2329     6.7032 C.3          1    LIG   0.0000
  13 C13         -2.4871     4.8298     7.3791 C.3          1    LIG   0.0000
  14 C14         -2.1803     5.3109     8.7897 C.3          1    LIG   0.0000
  15 C15         -0.7238     5.0966     9.1702 C.3          1    LIG   0.0000
  16 C16          0.1425     5.7738     8.1188 C.3          1    LIG   0.0000
  17 C17         -0.1781     5.3049     6.7060 C.3          1    LIG   0.0000
  18 N18          0.6545     3.0778     4.9752 N.ar         1    LIG   0.0000
  19 C19          1.5871     2.5308     4.1804 C.ar         1    LIG   0.0000
  20 N20          1.2816     2.1897     2.9177 N.ar         1    LIG   0.0000
  21 C21          0.0575     2.3798     2.3947 C.ar         1    LIG   0.0000
  22 C22          0.0117     0.0546     0.0042 C.3          1    LIG   0.0000
  23 O23         -1.2211    -0.4536     0.4961 O.3          1    LIG   0.0000
  24 C24          1.1851    -0.3144     0.8892 C.3          1    LIG   0.0000
  25 O25          0.8707    -0.2259     2.2730 O.3          1    LIG   0.0000
  26 H            2.6974     1.0696     1.2969 H            1    LIG   0.0000
  27 H            0.1696    -0.2838    -0.9235 H            1    LIG   0.0000
  28 H            1.5314    -1.2242     0.6604 H            1    LIG   0.0000
  29 H            3.0100    -0.5353    -2.3993 H            1    LIG   0.0000
  30 H            3.7495     0.9826    -0.8527 H            1    LIG   0.0000
  31 H            3.6680    -0.5147    -0.2062 H            1    LIG   0.0000
  32 H           -0.3871     1.9161    -0.8097 H            1    LIG   0.0000
  33 H           -2.5350     2.5272     0.5308 H            1    LIG   0.0000
  34 H           -2.4907     4.0122     4.9553 H            1    LIG   0.0000
  35 H           -0.9429     3.4306     7.2110 H            1    LIG   0.0000
  36 H           -3.2023     4.1322     7.4236 H            1    LIG   0.0000
  37 H           -2.8106     5.6047     6.8362 H            1    LIG   0.0000
  38 H           -2.7578     4.8085     9.4332 H            1    LIG   0.0000
  39 H           -2.3874     6.2875     8.8482 H            1    LIG   0.0000
  40 H           -0.5209     4.1178     9.1977 H            1    LIG   0.0000
  41 H           -0.5450     5.4995    10.0678 H            1    LIG   0.0000
  42 H           -0.0052     6.7616     8.1697 H            1    LIG   0.0000
  43 H            1.1017     5.5697     8.3142 H            1    LIG   0.0000
  44 H           -0.4958     6.0864     6.1689 H            1    LIG   0.0000
  45 H            0.6519     4.9312     6.2919 H            1    LIG   0.0000
  46 H            2.5116     2.3768     4.5291 H            1    LIG   0.0000
  47 H           -1.9618    -0.1847    -0.1195 H            1    LIG   0.0000
  48 H            0.2123    -0.9399     2.5115 H            1    LIG   0.0000
@<TRIPOS>BOND
   1        1        2 1
   2        2        3 1
   3        3        4 1
   4        4        5 1
   5        5        6 1
   6        6        7 1
   7        7        8 2
   8        8        9 1
   9        9       10 ar
  10       10       11 1
  11       11       12 1
  12       12       13 1
  13       13       14 1
  14       14       15 1
  15       15       16 1
  16       16       17 1
  17       17       12 1
  18       10       18 ar
  19       18       19 ar
  20       19       20 ar
  21       20       21 ar
  22       21        9 ar
  23       21        6 1
  24        5       22 1
  25       22       23 1
  26       22       24 1
  27       24        3 1
  28       24       25 1
  29        3       26 1
  30       22       27 1
  31       24       28 1
  32        1       29 1
  33        2       30 1
  34        2       31 1
  35        5       32 1
  36        7       33 1
  37       11       34 1
  38       12       35 1
  39       13       36 1
  40       13       37 1
  41       14       38 1
  42       14       39 1
  43       15       40 1
  44       15       41 1
  45       16       42 1
  46       16       43 1
  47       17       44 1
  48       17       45 1
  49       19       46 1
  50       23       47 1
  51       25       48 1

@<TRIPOS>MOLECULE
CHEMBL85549
  48   51
SMALL
USER_CHARGES
@<TRIPOS>ATOM
   1 O1           2.3854    -0.1973    -1.6953 O.3          1    LIG   0.0000
   2 C2           3.1332     0.2466    -0.5727 C.3          1    LIG   0.0000
   3 C3           2.1852     0.7595     0.4959 C.3          1    LIG   0.0000
   4 O4           1.4508     1.8350    -0.0691 O.3          1    LIG   0.0000
   5 C5           0.0644     1.5666     0.0113 C.3          1    LIG   0.0000
   6 N6          -0.5631     2.1614     1.1994 N.pl3        1    LIG   0.0000
   7 C7           0.0715     2.3770     2.3863 C.2          1    LIG   0.0000
   8 N8          -0.7979     2.9229     3.2064 N.2          1    LIG   0.0000
   9 C9          -1.9943     3.0612     2.5628 C.ar         1    LIG   0.0000
  10 C10         -3.2223     3.5742     2.9693 C.ar         1    LIG   0.0000
  11 N11         -3.3535     4.0640     4.2743 N.pl3        1    LIG   0.0000
  12 C12         -4.6400     4.6111     4.7280 C.3          1    LIG   0.0000
  13 C13         -4.5323     5.0761     6.1712 C.3          1    LIG   0.0000
  14 C14         -5.8627     5.6469     6.6345 C.3          1    LIG   0.0000
  15 C15         -6.2733     6.8111     5.7472 C.3          1    LIG   0.0000
  16 C16         -6.3836     6.3374     4.3066 C.3          1    LIG   0.0000
  17 C17         -5.0558     5.7678     3.8334 C.3          1    LIG   0.0000
  18 N18         -4.2608     3.5957     2.1201 N.ar         1    LIG   0.0000
  19 C19         -4.1154     3.1209     0.8736 C.ar         1    LIG   0.0000
  20 N20         -2.9313     2.6293     0.4727 N.ar         1    LIG   0.0000
  21 C21         -1.8583     2.5824     1.2816 C.ar         1    LIG   0.0000
  22 C22          0.0117     0.0546     0.0042 C.3          1    LIG   0.0000
  23 O23         -1.2211    -0.4536     0.4961 O.3          1    LIG   0.0000
  24 C24          1.1851    -0.3144     0.8892 C.3          1    LIG   0.0000
  25 O25          0.8707    -0.2259     2.2730 O.3          1    LIG   0.0000
  26 H            2.6974     1.0696     1.2969 H            1    LIG   0.0000
  27 H            0.1696    -0.2838    -0.9235 H            1    LIG   0.0000
  28 H            1.5314    -1.2242     0.6604 H            1    LIG   0.0000
  29 H            3.0100    -0.5353    -2.3993 H            1    LIG   0.0000
  30 H            3.7495     0.9826    -0.8527 H            1    LIG   0.0000
  31 H            3.6680    -0.5147    -0.2062 H            1    LIG   0.0000
  32 H           -0.3871     1.9161    -0.8097 H            1    LIG   0.0000
  33 H            1.0250     2.1594     2.5950 H            1    LIG   0.0000
  34 H           -2.5719     4.0417     4.8977 H            1    LIG   0.0000
  35 H           -5.3340     3.8934     4.6710 H            1    LIG   0.0000
  36 H           -3.8272     5.7819     6.2400 H            1    LIG   0.0000
  37 H           -4.2848     4.3001     6.7515 H            1    LIG   0.0000
  38 H           -5.7744     5.9661     7.5781 H            1    LIG   0.0000
  39 H           -6.5621     4.9337     6.5880 H            1    LIG   0.0000
  40 H           -5.5861     7.5350     5.8081 H            1    LIG   0.0000
  41 H           -7.1581     7.1651     6.0502 H            1    LIG   0.0000
  42 H           -7.0867     5.6289     4.2456 H            1    LIG   0.0000
  43 H           -6.6372     7.1097     3.7242 H            1    LIG   0.0000
  44 H           -5.1513     5.4417     2.8929 H            1    LIG   0.0000
  45 H           -4.3570     6.4822     3.8691 H            1    LIG   0.0000
  46 H           -4.8902     3.1331     0.2416 H            1    LIG   0.0000
  47 H           -1.9618    -0.1847    -0.1195 H            1    LIG   0.0000
  48 H            0.2123    -0.9399     2.5115 H            1    LIG   0.0000
@<TRIPOS>BOND
   1        1        2 1
   2        2        3 1
   3        3        4 1
   4        4        5 1
   5        5        6 1
   6        6        7 1
   7        7        8 2
   8        8        9 1
   9        9       10 ar
  10       10       11 1
  11       11       12 1
  12       12       13 1
  13       13       14 1
  14       14       15 1
  15       15       16 1
  16       16       17 1
  17       17       12 1
  18       10       18 ar
  19       18       19 ar
  20       19       20 ar
  21       20       21 ar
  22       21        9 ar
  23       21        6 1
  24        5       22 1
  25       22       23 1
  26       22       24 1
  27       24        3 1
  28       24       25 1
  29        3       26 1
  30       22       27 1
  31       24       28 1
  32        1       29 1
  33        2       30 1
  34        2       31 1
  35        5       32 1
  36        7       33 1
  37       11       34 1
  38       12       35 1
  39       13       36 1
  40       13       37 1
  41       14       38 1
  42       14       39 1
  43       15       40 1
  44       15       41 1
  45       16       42 1
  46       16       43 1
  47       17       44 1
  48       17       45 1
  49       19       46 1
  50       23       47 1
  51       25       48 1

@<TRIPOS>MOLECULE
CHEMBL85549
  48   51
SMALL
USER_CHARGES
@<TRIPOS>ATOM
   1 O1           1.4960     0.9962    -2.2395 O.3          1    LIG   0.0000
   2 C2           1.7412     2.1762    -1.4886 C.3          1    LIG   0.0000
   3 C3           1.4208     1.9213    -0.0261 C.3          1    LIG   0.0000
   4 O4           0.0678     1.5479     0.1809 O.3          1    LIG   0.0000
   5 C5           0.0479     0.1353     0.0757 C.3          1    LIG   0.0000
   6 N6          -1.2021    -0.4145     0.6180 N.pl3        1    LIG   0.0000
   7 C7          -1.7962    -1.5631     0.1870 C.2          1    LIG   0.0000
   8 N8          -2.8849    -1.7377     0.9016 N.2          1    LIG   0.0000
   9 C9          -3.0052    -0.7097     1.7923 C.ar         1    LIG   0.0000
  10 C10         -3.9581    -0.4195     2.7640 C.ar         1    LIG   0.0000
  11 N11         -5.0409    -1.2907     2.9327 N.pl3        1    LIG   0.0000
  12 C12         -6.0602    -1.0067     3.9515 C.3          1    LIG   0.0000
  13 C13         -6.8907     0.2052     3.5408 C.3          1    LIG   0.0000
  14 C14         -7.9025     0.5868     4.6111 C.3          1    LIG   0.0000
  15 C15         -7.8244    -0.3185     5.8303 C.3          1    LIG   0.0000
  16 C16         -6.3923    -0.2957     6.3432 C.3          1    LIG   0.0000
  17 C17         -5.3792    -0.6601     5.2663 C.3          1    LIG   0.0000
  18 N18         -3.8363     0.6797     3.5236 N.ar         1    LIG   0.0000
  19 C19         -2.7916     1.5029     3.3462 C.ar         1    LIG   0.0000
  20 N20         -1.8651     1.2260     2.4139 N.ar         1    LIG   0.0000
  21 C21         -1.9377     0.1398     1.6246 C.ar         1    LIG   0.0000
  22 C22          1.2289    -0.2783     0.9254 C.3          1    LIG   0.0000
  23 O23          0.8604    -0.1399     2.2913 O.3          1    LIG   0.0000
  24 C24          2.2471     0.7769     0.5370 C.3          1    LIG   0.0000
  25 O25          2.9941     1.1909     1.6707 O.3          1    LIG   0.0000
  26 H            1.6134     2.7506     0.4985 H            1    LIG   0.0000
  27 H            1.5430    -1.2031     0.7109 H            1    LIG   0.0000
  28 H            2.8611     0.4187    -0.1663 H            1    LIG   0.0000
  29 H            1.7069     1.1640    -3.2025 H            1    LIG   0.0000
  30 H            1.1632     2.9163    -1.8325 H            1    LIG   0.0000
  31 H            2.7029     2.4349    -1.5790 H            1    LIG   0.0000
  32 H            0.1777    -0.1507    -0.8738 H            1    LIG   0.0000
  33 H           -1.4640    -2.1634    -0.5406 H            1    LIG   0.0000
  34 H           -5.1204    -2.1063     2.3595 H            1    LIG   0.0000
  35 H           -6.6534    -1.8026     4.0730 H            1    LIG   0.0000
  36 H           -7.3795    -0.0091     2.6951 H            1    LIG   0.0000
  37 H           -6.2776     0.9795     3.3843 H            1    LIG   0.0000
  38 H           -8.8215     0.5230     4.2220 H            1    LIG   0.0000
  39 H           -7.7268     1.5284     4.8983 H            1    LIG   0.0000
  40 H           -8.0790    -1.2517     5.5768 H            1    LIG   0.0000
  41 H           -8.4443     0.0149     6.5406 H            1    LIG   0.0000
  42 H           -6.1867     0.6236     6.6785 H            1    LIG   0.0000
  43 H           -6.3106    -0.9506     7.0945 H            1    LIG   0.0000
  44 H           -4.7675     0.1174     5.1198 H            1    LIG   0.0000
  45 H           -4.8477    -1.4491     5.5743 H            1    LIG   0.0000
  46 H           -2.7026     2.3244     3.9094 H            1    LIG   0.0000
  47 H            0.1898    -0.8428     2.5285 H            1    LIG   0.0000
  48 H            3.5266     0.4194     2.0189 H            1    LIG   0.0000
@<TRIPOS>BOND
   1        1        2 1
   2        2        3 1
   3        3        4 1
   4        4        5 1
   5        5        6 1
   6        6        7 1
   7        7        8 2
   8        8        9 1
   9        9       10 ar
  10       10       11 1
  11       11       12 1
  12       12       13 1
  13       13       14 1
  14       14       15 1
  15       15       16 1
  16       16       17 1
  17       17       12 1
  18       10       18 ar
  19       18       19 ar
  20       19       20 ar
  21       20       21 ar
  22       21        9 ar
  23       21        6 1
  24        5       22 1
  25       22       23 1
  26       22       24 1
  27       24        3 1
  28       24       25 1
  29        3       26 1
  30       22       27 1
  31       24       28 1
  32        1       29 1
  33        2       30 1
  34        2       31 1
  35        5       32 1
  36        7       33 1
  37       11       34 1
  38       12       35 1
  39       13       36 1
  40       13       37 1
  41       14       38 1
  42       14       39 1
  43       15       40 1
  44       15       41 1
  45       16       42 1
  46       16       43 1
  47       17       44 1
  48       17       45 1
  49       19       46 1
  50       23       47 1
  51       25       48 1

@<TRIPOS>MOLECULE
CHEMBL85549
  48   51
SMALL
USER_CHARGES
@<TRIPOS>ATOM
   1 O1           1.4960     0.9962    -2.2395 O.3          1    LIG   0.0000
   2 C2           1.7412     2.1762    -1.4886 C.3          1    LIG   0.0000
   3 C3           1.4208     1.9213    -0.0261 C.3          1    LIG   0.0000
   4 O4           0.0678     1.5479     0.1809 O.3          1    LIG   0.0000
   5 C5           0.0479     0.1353     0.0757 C.3          1    LIG   0.0000
   6 N6          -1.2021    -0.4145     0.6180 N.pl3        1    LIG   0.0000
   7 C7          -1.3224    -1.6415     1.1994 C.2          1    LIG   0.0000
   8 N8          -2.5764    -1.7852     1.5643 N.2          1    LIG   0.0000
   9 C9          -3.2736    -0.6621     1.2219 C.ar         1    LIG   0.0000
  10 C10         -4.6089    -0.3042     1.3809 C.ar         1    LIG   0.0000
  11 N11         -5.4835    -1.2067     1.9979 N.pl3        1    LIG   0.0000
  12 C12         -6.8983    -0.8525     2.1777 C.3          1    LIG   0.0000
  13 C13         -7.6115    -0.8329     0.8352 C.3          1    LIG   0.0000
  14 C14         -9.0766    -0.4715     1.0195 C.3          1    LIG   0.0000
  15 C15         -9.1847     0.8899     1.6873 C.3          1    LIG   0.0000
  16 C16         -8.4801     0.8729     3.0344 C.3          1    LIG   0.0000
  17 C17         -7.0164     0.5045     2.8524 C.3          1    LIG   0.0000
  18 N18         -5.0459     0.8878     0.9470 N.ar         1    LIG   0.0000
  19 C19         -4.1923     1.7388     0.3574 C.ar         1    LIG   0.0000
  20 N20         -2.9008     1.4021     0.2057 N.ar         1    LIG   0.0000
  21 C21         -2.4093     0.2213     0.6203 C.ar         1    LIG   0.0000
  22 C22          1.2289    -0.2783     0.9254 C.3          1    LIG   0.0000
  23 O23          0.8604    -0.1399     2.2913 O.3          1    LIG   0.0000
  24 C24          2.2471     0.7769     0.5370 C.3          1    LIG   0.0000
  25 O25          2.9941     1.1909     1.6707 O.3          1    LIG   0.0000
  26 H            1.6134     2.7506     0.4985 H            1    LIG   0.0000
  27 H            1.5430    -1.2031     0.7109 H            1    LIG   0.0000
  28 H            2.8611     0.4187    -0.1663 H            1    LIG   0.0000
  29 H            1.7069     1.1640    -3.2025 H            1    LIG   0.0000
  30 H            1.1632     2.9163    -1.8325 H            1    LIG   0.0000
  31 H            2.7029     2.4349    -1.5790 H            1    LIG   0.0000
  32 H            0.1777    -0.1507    -0.8738 H            1    LIG   0.0000
  33 H           -0.5897    -2.3104     1.3253 H            1    LIG   0.0000
  34 H           -5.1454    -2.0923     2.3162 H            1    LIG   0.0000
  35 H           -7.3303    -1.5403     2.7611 H            1    LIG   0.0000
  36 H           -7.5455    -1.7373     0.4136 H            1    LIG   0.0000
  37 H           -7.1772    -0.1557     0.2412 H            1    LIG   0.0000
  38 H           -9.5198    -1.1601     1.5935 H            1    LIG   0.0000
  39 H           -9.5270    -0.4414     0.1272 H            1    LIG   0.0000
  40 H          -10.1494     1.1157     1.8223 H            1    LIG   0.0000
  41 H           -8.7597     1.5797     1.1012 H            1    LIG   0.0000
  42 H           -8.5437     1.7791     3.4526 H            1    LIG   0.0000
  43 H           -8.9193     0.1997     3.6292 H            1    LIG   0.0000
  44 H           -6.5696     1.1959     2.2847 H            1    LIG   0.0000
  45 H           -6.5708     0.4688     3.7469 H            1    LIG   0.0000
  46 H           -4.5183     2.6258     0.0303 H            1    LIG   0.0000
  47 H            0.1898    -0.8428     2.5285 H            1    LIG   0.0000
  48 H            3.5266     0.4194     2.0189 H            1    LIG   0.0000
@<TRIPOS>BOND
   1        1        2 1
   2        2        3 1
   3        3        4 1
   4        4        5 1
   5        5        6 1
   6        6        7 1
   7        7        8 2
   8        8        9 1
   9        9       10 ar
  10       10       11 1
  11       11       12 1
  12       12       13 1
  13       13       14 1
  14       14       15 1
  15       15       16 1
  16       16       17 1
  17       17       12 1
  18       10       18 ar
  19       18       19 ar
  20       19       20 ar
  21       20       21 ar
  22       21        9 ar
  23       21        6 1
  24        5       22 1
  25       22       23 1
  26       22       24 1
  27       24        3 1
  28       24       25 1
  29        3       26 1
  30       22       27 1
  31       24       28 1
  32        1       29 1
  33        2       30 1
  34        2       31 1
  35        5       32 1
  36        7       33 1
  37       11       34 1
  38       12       35 1
  39       13       36 1
  40       13       37 1
  41       14       38 1
  42       14       39 1
  43       15       40 1
  44       15       41 1
  45       16       42 1
  46       16       43 1
  47       17       44 1
  48       17       45 1
  49       19       46 1
  50       23       47 1
  51       25       48 1

@<TRIPOS>MOLECULE
CHEMBL85549
  48   51
SMALL
USER_CHARGES
@<TRIPOS>ATOM
   1 O1           1.4960     0.9962    -2.2395 O.3          1    LIG   0.0000
   2 C2           1.7412     2.1762    -1.4886 C.3          1    LIG   0.0000
   3 C3           1.4208     1.9213    -0.0261 C.3          1    LIG   0.0000
   4 O4           0.0678     1.5479     0.1809 O.3          1    LIG   0.0000
   5 C5           0.0479     0.1353     0.0757 C.3          1    LIG   0.0000
   6 N6          -1.2021    -0.4145     0.6180 N.pl3        1    LIG   0.0000
   7 C7          -1.3224    -1.6415     1.1994 C.2          1    LIG   0.0000
   8 N8          -2.5764    -1.7852     1.5643 N.2          1    LIG   0.0000
   9 C9          -3.2736    -0.6621     1.2219 C.ar         1    LIG   0.0000
  10 C10         -4.6089    -0.3042     1.3809 C.ar         1    LIG   0.0000
  11 N11         -5.4835    -1.2067     1.9979 N.pl3        1    LIG   0.0000
  12 C12         -6.8983    -0.8525     2.1777 C.3          1    LIG   0.0000
  13 C13         -7.6417    -1.9854     2.8670 C.3          1    LIG   0.0000
  14 C14         -9.1047    -1.6190     3.0585 C.3          1    LIG   0.0000
  15 C15         -9.7370    -1.3267     1.7073 C.3          1    LIG   0.0000
  16 C16         -9.0021    -0.1885     1.0173 C.3          1    LIG   0.0000
  17 C17         -7.5373    -0.5506     0.8318 C.3          1    LIG   0.0000
  18 N18         -5.0459     0.8878     0.9470 N.ar         1    LIG   0.0000
  19 C19         -4.1923     1.7388     0.3574 C.ar         1    LIG   0.0000
  20 N20         -2.9008     1.4021     0.2057 N.ar         1    LIG   0.0000
  21 C21         -2.4093     0.2213     0.6203 C.ar         1    LIG   0.0000
  22 C22          1.2289    -0.2783     0.9254 C.3          1    LIG   0.0000
  23 O23          0.8604    -0.1399     2.2913 O.3          1    LIG   0.0000
  24 C24          2.2471     0.7769     0.5370 C.3          1    LIG   0.0000
  25 O25          2.9941     1.1909     1.6707 O.3          1    LIG   0.0000
  26 H            1.6134     2.7506     0.4985 H            1    LIG   0.0000
  27 H            1.5430    -1.2031     0.7109 H            1    LIG   0.0000
  28 H            2.8611     0.4187    -0.1663 H            1    LIG   0.0000
  29 H            1.7069     1.1640    -3.2025 H            1    LIG   0.0000
  30 H            1.1632     2.9163    -1.8325 H            1    LIG   0.0000
  31 H            2.7029     2.4349    -1.5790 H            1    LIG   0.0000
  32 H            0.1777    -0.1507    -0.8738 H            1    LIG   0.0000
  33 H           -0.5897    -2.3104     1.3253 H            1    LIG   0.0000
  34 H           -5.1454    -2.0923     2.3162 H            1    LIG   0.0000
  35 H           -6.9548    -0.0352     2.7510 H            1    LIG   0.0000
  36 H           -7.2255    -2.1576     3.7598 H            1    LIG   0.0000
  37 H           -7.5793    -2.8104     2.3054 H            1    LIG   0.0000
  38 H           -9.1716    -0.8081     3.6399 H            1    LIG   0.0000
  39 H           -9.5848    -2.3811     3.4929 H            1    LIG   0.0000
  40 H          -10.6942    -1.0694     1.8395 H            1    LIG   0.0000
  41 H           -9.6878    -2.1458     1.1358 H            1    LIG   0.0000
  42 H           -9.4172    -0.0204     0.1232 H            1    LIG   0.0000
  43 H           -9.0706     0.6372     1.5772 H            1    LIG   0.0000
  44 H           -7.4678    -1.3570     0.2446 H            1    LIG   0.0000
  45 H           -7.0590     0.2160     0.4034 H            1    LIG   0.0000
  46 H           -4.5183     2.6258     0.0303 H            1    LIG   0.0000
  47 H            0.1898    -0.8428     2.5285 H            1    LIG   0.0000
  48 H            3.5266     0.4194     2.0189 H            1    LIG   0.0000
@<TRIPOS>BOND
   1        1        2 1
   2        2        3 1
   3        3        4 1
   4        4        5 1
   5        5        6 1
   6        6        7 1
   7        7        8 2
   8        8        9 1
   9        9       10 ar
  10       10       11 1
  11       11       12 1
  12       12       13 1
  13       13       14 1
  14       14       15 1
  15       15       16 1
  16       16       17 1
  17       17       12 1
  18       10       18 ar
  19       18       19 ar
  20       19       20 ar
  21       20       21 ar
  22       21        9 ar
  23       21        6 1
  24        5       22 1
  25       22       23 1
  26       22       24 1
  27       24        3 1
  28       24       25 1
  29        3       26 1
  30       22       27 1
  31       24       28 1
  32        1       29 1
  33        2       30 1
  34        2       31 1
  35        5       32 1
  36        7       33 1
  37       11       34 1
  38       12       35 1
  39       13       36 1
  40       13       37 1
  41       14       38 1
  42       14       39 1
  43       15       40 1
  44       15       41 1
  45       16       42 1
  46       16       43 1
  47       17       44 1
  48       17       45 1
  49       19       46 1
  50       23       47 1
  51       25       48 1

@<TRIPOS>MOLECULE
CHEMBL85549
  48   51
SMALL
USER_CHARGES
@<TRIPOS>ATOM
   1 O1           1.4960     0.9962    -2.2395 O.3          1    LIG   0.0000
   2 C2           1.7412     2.1762    -1.4886 C.3          1    LIG   0.0000
   3 C3           1.4208     1.9213    -0.0261 C.3          1    LIG   0.0000
   4 O4           0.0678     1.5479     0.1809 O.3          1    LIG   0.0000
   5 C5           0.0479     0.1353     0.0757 C.3          1    LIG   0.0000
   6 N6          -1.2021    -0.4145     0.6180 N.pl3        1    LIG   0.0000
   7 C7          -1.3224    -1.6415     1.1994 C.2          1    LIG   0.0000
   8 N8          -2.5764    -1.7852     1.5643 N.2          1    LIG   0.0000
   9 C9          -3.2736    -0.6621     1.2219 C.ar         1    LIG   0.0000
  10 C10         -4.6089    -0.3042     1.3809 C.ar         1    LIG   0.0000
  11 N11         -5.4835    -1.2067     1.9979 N.pl3        1    LIG   0.0000
  12 C12         -6.8985    -0.8525     2.1777 C.3          1    LIG   0.0000
  13 C13         -7.0360     0.2436     3.2220 C.3          1    LIG   0.0000
  14 C14         -8.5001     0.6114     3.4004 C.3          1    LIG   0.0000
  15 C15         -9.0893     1.0807     2.0798 C.3          1    LIG   0.0000
  16 C16         -8.9525    -0.0222     1.0421 C.3          1    LIG   0.0000
  17 C17         -7.4903    -0.3943     0.8545 C.3          1    LIG   0.0000
  18 N18         -5.0459     0.8878     0.9470 N.ar         1    LIG   0.0000
  19 C19         -4.1923     1.7388     0.3574 C.ar         1    LIG   0.0000
  20 N20         -2.9008     1.4021     0.2057 N.ar         1    LIG   0.0000
  21 C21         -2.4093     0.2213     0.6203 C.ar         1    LIG   0.0000
  22 C22          1.2289    -0.2783     0.9254 C.3          1    LIG   0.0000
  23 O23          0.8604    -0.1399     2.2913 O.3          1    LIG   0.0000
  24 C24          2.2471     0.7769     0.5370 C.3          1    LIG   0.0000
  25 O25          2.9941     1.1909     1.6707 O.3          1    LIG   0.0000
  26 H            1.6134     2.7506     0.4985 H            1    LIG   0.0000
  27 H            1.5430    -1.2031     0.7109 H            1    LIG   0.0000
  28 H            2.8611     0.4187    -0.1663 H            1    LIG   0.0000
  29 H            1.7069     1.1640    -3.2025 H            1    LIG   0.0000
  30 H            1.1632     2.9163    -1.8325 H            1    LIG   0.0000
  31 H            2.7029     2.4349    -1.5790 H            1    LIG   0.0000
  32 H            0.1777    -0.1507    -0.8738 H            1    LIG   0.0000
  33 H           -0.5897    -2.3104     1.3253 H            1    LIG   0.0000
  34 H           -5.1454    -2.0923     2.3162 H            1    LIG   0.0000
  35 H           -7.3964    -1.6612     2.4911 H            1    LIG   0.0000
  36 H           -6.5258     1.0504     2.9242 H            1    LIG   0.0000
  37 H           -6.6676    -0.0810     4.0931 H            1    LIG   0.0000
  38 H           -8.5762     1.3454     4.0752 H            1    LIG   0.0000
  39 H           -9.0051    -0.1900     3.7210 H            1    LIG   0.0000
  40 H           -8.5999     1.8948     1.7672 H            1    LIG   0.0000
  41 H          -10.0565     1.3012     2.2061 H            1    LIG   0.0000
  42 H           -9.4608    -0.8272     1.3479 H            1    LIG   0.0000
  43 H           -9.3258     0.2967     0.1710 H            1    LIG   0.0000
  44 H           -7.4198    -1.1345     0.1859 H            1    LIG   0.0000
  45 H           -6.9852     0.4029     0.5239 H            1    LIG   0.0000
  46 H           -4.5183     2.6258     0.0303 H            1    LIG   0.0000
  47 H            0.1898    -0.8428     2.5285 H            1    LIG   0.0000
  48 H            3.5266     0.4194     2.0189 H            1    LIG   0.0000
@<TRIPOS>BOND
   1        1        2 1
   2        2        3 1
   3        3        4 1
   4        4        5 1
   5        5        6 1
   6        6        7 1
   7        7        8 2
   8        8        9 1
   9        9       10 ar
  10       10       11 1
  11       11       12 1
  12       12       13 1
  13       13       14 1
  14       14       15 1
  15       15       16 1
  16       16       17 1
  17       17       12 1
  18       10       18 ar
  19       18       19 ar
  20       19       20 ar
  21       20       21 ar
  22       21        9 ar
  23       21        6 1
  24        5       22 1
  25       22       23 1
  26       22       24 1
  27       24        3 1
  28       24       25 1
  29        3       26 1
  30       22       27 1
  31       24       28 1
  32        1       29 1
  33        2       30 1
  34        2       31 1
  35        5       32 1
  36        7       33 1
  37       11       34 1
  38       12       35 1
  39       13       36 1
  40       13       37 1
  41       14       38 1
  42       14       39 1
  43       15       40 1
  44       15       41 1
  45       16       42 1
  46       16       43 1
  47       17       44 1
  48       17       45 1
  49       19       46 1
  50       23       47 1
  51       25       48 1

@<TRIPOS>MOLECULE
CHEMBL85549
  48   51
SMALL
USER_CHARGES
@<TRIPOS>ATOM
   1 O1           1.4960     0.9962    -2.2395 O.3          1    LIG   0.0000
   2 C2           1.7412     2.1762    -1.4886 C.3          1    LIG   0.0000
   3 C3           1.4208     1.9213    -0.0261 C.3          1    LIG   0.0000
   4 O4           0.0678     1.5479     0.1809 O.3          1    LIG   0.0000
   5 C5           0.0479     0.1353     0.0757 C.3          1    LIG   0.0000
   6 N6          -1.2021    -0.4145     0.6180 N.pl3        1    LIG   0.0000
   7 C7          -1.3224    -1.6415     1.1994 C.2          1    LIG   0.0000
   8 N8          -2.5764    -1.7852     1.5643 N.2          1    LIG   0.0000
   9 C9          -3.2736    -0.6621     1.2219 C.ar         1    LIG   0.0000
  10 C10         -4.6089    -0.3042     1.3809 C.ar         1    LIG   0.0000
  11 N11         -5.4835    -1.2067     1.9979 N.pl3        1    LIG   0.0000
  12 C12         -6.8985    -0.8525     2.1777 C.3          1    LIG   0.0000
  13 C13         -7.6091    -0.8335     0.8340 C.3          1    LIG   0.0000
  14 C14         -9.0734    -0.4731     1.0250 C.3          1    LIG   0.0000
  15 C15         -9.7457    -1.4754     1.9495 C.3          1    LIG   0.0000
  16 C16         -9.0327    -1.4852     3.2924 C.3          1    LIG   0.0000
  17 C17         -7.5675    -1.8483     3.1114 C.3          1    LIG   0.0000
  18 N18         -5.0459     0.8878     0.9470 N.ar         1    LIG   0.0000
  19 C19         -4.1923     1.7388     0.3574 C.ar         1    LIG   0.0000
  20 N20         -2.9008     1.4021     0.2057 N.ar         1    LIG   0.0000
  21 C21         -2.4093     0.2213     0.6203 C.ar         1    LIG   0.0000
  22 C22          1.2289    -0.2783     0.9254 C.3          1    LIG   0.0000
  23 O23          0.8604    -0.1399     2.2913 O.3          1    LIG   0.0000
  24 C24          2.2471     0.7769     0.5370 C.3          1    LIG   0.0000
  25 O25          2.9941     1.1909     1.6707 O.3          1    LIG   0.0000
  26 H            1.6134     2.7506     0.4985 H            1    LIG   0.0000
  27 H            1.5430    -1.2031     0.7109 H            1    LIG   0.0000
  28 H            2.8611     0.4187    -0.1663 H            1    LIG   0.0000
  29 H            1.7069     1.1640    -3.2025 H            1    LIG   0.0000
  30 H            1.1632     2.9163    -1.8325 H            1    LIG   0.0000
  31 H            2.7029     2.4349    -1.5790 H            1    LIG   0.0000
  32 H            0.1777    -0.1507    -0.8738 H            1    LIG   0.0000
  33 H           -0.5897    -2.3104     1.3253 H            1    LIG   0.0000
  34 H           -5.1454    -2.0923     2.3162 H            1    LIG   0.0000
  35 H           -6.9538     0.0592     2.5849 H            1    LIG   0.0000
  36 H           -7.5430    -1.7376     0.4117 H            1    LIG   0.0000
  37 H           -7.1760    -0.1557     0.2399 H            1    LIG   0.0000
  38 H           -9.5341    -0.4821     0.1375 H            1    LIG   0.0000
  39 H           -9.1389     0.4409     1.4253 H            1    LIG   0.0000
  40 H           -9.7004    -2.3873     1.5417 H            1    LIG   0.0000
  41 H          -10.7025    -1.2167     2.0822 H            1    LIG   0.0000
  42 H           -9.0985    -0.5776     3.7071 H            1    LIG   0.0000
  43 H           -9.4673    -2.1576     3.8915 H            1    LIG   0.0000
  44 H           -7.1090    -1.8292     3.9999 H            1    LIG   0.0000
  45 H           -7.4993    -2.7663     2.7208 H            1    LIG   0.0000
  46 H           -4.5183     2.6258     0.0303 H            1    LIG   0.0000
  47 H            0.1898    -0.8428     2.5285 H            1    LIG   0.0000
  48 H            3.5266     0.4194     2.0189 H            1    LIG   0.0000
@<TRIPOS>BOND
   1        1        2 1
   2        2        3 1
   3        3        4 1
   4        4        5 1
   5        5        6 1
   6        6        7 1
   7        7        8 2
   8        8        9 1
   9        9       10 ar
  10       10       11 1
  11       11       12 1
  12       12       13 1
  13       13       14 1
  14       14       15 1
  15       15       16 1
  16       16       17 1
  17       17       12 1
  18       10       18 ar
  19       18       19 ar
  20       19       20 ar
  21       20       21 ar
  22       21        9 ar
  23       21        6 1
  24        5       22 1
  25       22       23 1
  26       22       24 1
  27       24        3 1
  28       24       25 1
  29        3       26 1
  30       22       27 1
  31       24       28 1
  32        1       29 1
  33        2       30 1
  34        2       31 1
  35        5       32 1
  36        7       33 1
  37       11       34 1
  38       12       35 1
  39       13       36 1
  40       13       37 1
  41       14       38 1
  42       14       39 1
  43       15       40 1
  44       15       41 1
  45       16       42 1
  46       16       43 1
  47       17       44 1
  48       17       45 1
  49       19       46 1
  50       23       47 1
  51       25       48 1

@<TRIPOS>MOLECULE
CHEMBL85549
  48   51
SMALL
USER_CHARGES
@<TRIPOS>ATOM
   1 O1           1.4960     0.9962    -2.2395 O.3          1    LIG   0.0000
   2 C2           1.7412     2.1762    -1.4886 C.3          1    LIG   0.0000
   3 C3           1.4208     1.9213    -0.0261 C.3          1    LIG   0.0000
   4 O4           0.0678     1.5479     0.1809 O.3          1    LIG   0.0000
   5 C5           0.0479     0.1353     0.0757 C.3          1    LIG   0.0000
   6 N6          -1.2021    -0.4145     0.6180 N.pl3        1    LIG   0.0000
   7 C7          -2.4022     0.2317     0.6096 C.2          1    LIG   0.0000
   8 N8          -3.2840    -0.5640     1.1715 N.2          1    LIG   0.0000
   9 C9          -2.6659    -1.7219     1.5482 C.ar         1    LIG   0.0000
  10 C10         -3.1354    -2.8736     2.1723 C.ar         1    LIG   0.0000
  11 N11         -4.4888    -2.9511     2.5221 N.pl3        1    LIG   0.0000
  12 C12         -5.0094    -4.1567     3.1821 C.3          1    LIG   0.0000
  13 C13         -5.0289    -5.3218     2.2060 C.3          1    LIG   0.0000
  14 C14         -5.5619    -6.5681     2.8942 C.3          1    LIG   0.0000
  15 C15         -4.6973    -6.9162     4.0953 C.3          1    LIG   0.0000
  16 C16         -4.6866    -5.7485     5.0689 C.3          1    LIG   0.0000
  17 C17         -4.1514    -4.4979     4.3898 C.3          1    LIG   0.0000
  18 N18         -2.2995    -3.8902     2.4331 N.ar         1    LIG   0.0000
  19 C19         -1.0054    -3.7966     2.0908 C.ar         1    LIG   0.0000
  20 N20         -0.5466    -2.6900     1.4831 N.ar         1    LIG   0.0000
  21 C21         -1.3389    -1.6415     1.1989 C.ar         1    LIG   0.0000
  22 C22          1.2289    -0.2783     0.9254 C.3          1    LIG   0.0000
  23 O23          0.8604    -0.1399     2.2913 O.3          1    LIG   0.0000
  24 C24          2.2471     0.7769     0.5370 C.3          1    LIG   0.0000
  25 O25          2.9941     1.1909     1.6707 O.3          1    LIG   0.0000
  26 H            1.6134     2.7506     0.4985 H            1    LIG   0.0000
  27 H            1.5430    -1.2031     0.7109 H            1    LIG   0.0000
  28 H            2.8611     0.4187    -0.1663 H            1    LIG   0.0000
  29 H            1.7069     1.1640    -3.2025 H            1    LIG   0.0000
  30 H            1.1632     2.9163    -1.8325 H            1    LIG   0.0000
  31 H            2.7029     2.4349    -1.5790 H            1    LIG   0.0000
  32 H            0.1777    -0.1507    -0.8738 H            1    LIG   0.0000
  33 H           -2.5793     1.1449     0.2427 H            1    LIG   0.0000
  34 H           -5.1013    -2.1861     2.3228 H            1    LIG   0.0000
  35 H           -5.9438    -3.9780     3.4902 H            1    LIG   0.0000
  36 H           -4.0999    -5.4957     1.8793 H            1    LIG   0.0000
  37 H           -5.6179    -5.0943     1.4305 H            1    LIG   0.0000
  38 H           -5.5526    -7.3314     2.2482 H            1    LIG   0.0000
  39 H           -6.4994    -6.4012     3.1995 H            1    LIG   0.0000
  40 H           -3.7637    -7.1044     3.7904 H            1    LIG   0.0000
  41 H           -5.0691    -7.7256     4.5499 H            1    LIG   0.0000
  42 H           -5.6186    -5.5769     5.3881 H            1    LIG   0.0000
  43 H           -4.1034    -5.9751     5.8490 H            1    LIG   0.0000
  44 H           -4.1711    -3.7353     5.0365 H            1    LIG   0.0000
  45 H           -3.2102    -4.6589     4.0929 H            1    LIG   0.0000
  46 H           -0.3812    -4.5524     2.2885 H            1    LIG   0.0000
  47 H            0.1898    -0.8428     2.5285 H            1    LIG   0.0000
  48 H            3.5266     0.4194     2.0189 H            1    LIG   0.0000
@<TRIPOS>BOND
   1        1        2 1
   2        2        3 1
   3        3        4 1
   4        4        5 1
   5        5        6 1
   6        6        7 1
   7        7        8 2
   8        8        9 1
   9        9       10 ar
  10       10       11 1
  11       11       12 1
  12       12       13 1
  13       13       14 1
  14       14       15 1
  15       15       16 1
  16       16       17 1
  17       17       12 1
  18       10       18 ar
  19       18       19 ar
  20       19       20 ar
  21       20       21 ar
  22       21        9 ar
  23       21        6 1
  24        5       22 1
  25       22       23 1
  26       22       24 1
  27       24        3 1
  28       24       25 1
  29        3       26 1
  30       22       27 1
  31       24       28 1
  32        1       29 1
  33        2       30 1
  34        2       31 1
  35        5       32 1
  36        7       33 1
  37       11       34 1
  38       12       35 1
  39       13       36 1
  40       13       37 1
  41       14       38 1
  42       14       39 1
  43       15       40 1
  44       15       41 1
  45       16       42 1
  46       16       43 1
  47       17       44 1
  48       17       45 1
  49       19       46 1
  50       23       47 1
  51       25       48 1

@<TRIPOS>MOLECULE
CHEMBL85549
  48   51
SMALL
USER_CHARGES
@<TRIPOS>ATOM
   1 O1           1.4960     0.9962    -2.2395 O.3          1    LIG   0.0000
   2 C2           1.7412     2.1762    -1.4886 C.3          1    LIG   0.0000
   3 C3           1.4208     1.9213    -0.0261 C.3          1    LIG   0.0000
   4 O4           0.0678     1.5479     0.1809 O.3          1    LIG   0.0000
   5 C5           0.0479     0.1353     0.0757 C.3          1    LIG   0.0000
   6 N6          -1.2021    -0.4145     0.6180 N.pl3        1    LIG   0.0000
   7 C7          -2.4022     0.2317     0.6096 C.2          1    LIG   0.0000
   8 N8          -3.2840    -0.5640     1.1715 N.2          1    LIG   0.0000
   9 C9          -2.6659    -1.7219     1.5482 C.ar         1    LIG   0.0000
  10 C10         -3.1354    -2.8736     2.1723 C.ar         1    LIG   0.0000
  11 N11         -4.4888    -2.9511     2.5221 N.pl3        1    LIG   0.0000
  12 C12         -5.0097    -4.1575     3.1826 C.3          1    LIG   0.0000
  13 C13         -6.4998    -4.0042     3.4610 C.3          1    LIG   0.0000
  14 C14         -7.0853    -5.2517     4.1065 C.3          1    LIG   0.0000
  15 C15         -6.0610    -6.3683     4.2546 C.3          1    LIG   0.0000
  16 C16         -5.4282    -6.6248     2.8969 C.3          1    LIG   0.0000
  17 C17         -4.8194    -5.3716     2.2876 C.3          1    LIG   0.0000
  18 N18         -2.2995    -3.8902     2.4331 N.ar         1    LIG   0.0000
  19 C19         -1.0054    -3.7966     2.0908 C.ar         1    LIG   0.0000
  20 N20         -0.5466    -2.6900     1.4831 N.ar         1    LIG   0.0000
  21 C21         -1.3389    -1.6415     1.1989 C.ar         1    LIG   0.0000
  22 C22          1.2289    -0.2783     0.9254 C.3          1    LIG   0.0000
  23 O23          0.8604    -0.1399     2.2913 O.3          1    LIG   0.0000
  24 C24          2.2471     0.7769     0.5370 C.3          1    LIG   0.0000
  25 O25          2.9941     1.1909     1.6707 O.3          1    LIG   0.0000
  26 H            1.6134     2.7506     0.4985 H            1    LIG   0.0000
  27 H            1.5430    -1.2031     0.7109 H            1    LIG   0.0000
  28 H            2.8611     0.4187    -0.1663 H            1    LIG   0.0000
  29 H            1.7069     1.1640    -3.2025 H            1    LIG   0.0000
  30 H            1.1632     2.9163    -1.8325 H            1    LIG   0.0000
  31 H            2.7029     2.4349    -1.5790 H            1    LIG   0.0000
  32 H            0.1777    -0.1507    -0.8738 H            1    LIG   0.0000
  33 H           -2.5793     1.1449     0.2427 H            1    LIG   0.0000
  34 H           -5.1013    -2.1861     2.3228 H            1    LIG   0.0000
  35 H           -4.5235    -4.3006     4.0446 H            1    LIG   0.0000
  36 H           -6.9745    -3.8333     2.5976 H            1    LIG   0.0000
  37 H           -6.6359    -3.2273     4.0758 H            1    LIG   0.0000
  38 H           -7.8397    -5.5820     3.5393 H            1    LIG   0.0000
  39 H           -7.4306    -5.0112     5.0136 H            1    LIG   0.0000
  40 H           -6.5125    -7.1995     4.5788 H            1    LIG   0.0000
  41 H           -5.3561    -6.0949     4.9091 H            1    LIG   0.0000
  42 H           -4.7085    -7.3108     3.0037 H            1    LIG   0.0000
  43 H           -6.1313    -6.9730     2.2769 H            1    LIG   0.0000
  44 H           -3.8403    -5.5216     2.1499 H            1    LIG   0.0000
  45 H           -5.2568    -5.1952     1.4058 H            1    LIG   0.0000
  46 H           -0.3812    -4.5524     2.2885 H            1    LIG   0.0000
  47 H            0.1898    -0.8428     2.5285 H            1    LIG   0.0000
  48 H            3.5266     0.4194     2.0189 H            1    LIG   0.0000
@<TRIPOS>BOND
   1        1        2 1
   2        2        3 1
   3        3        4 1
   4        4        5 1
   5        5        6 1
   6        6        7 1
   7        7        8 2
   8        8        9 1
   9        9       10 ar
  10       10       11 1
  11       11       12 1
  12       12       13 1
  13       13       14 1
  14       14       15 1
  15       15       16 1
  16       16       17 1
  17       17       12 1
  18       10       18 ar
  19       18       19 ar
  20       19       20 ar
  21       20       21 ar
  22       21        9 ar
  23       21        6 1
  24        5       22 1
  25       22       23 1
  26       22       24 1
  27       24        3 1
  28       24       25 1
  29        3       26 1
  30       22       27 1
  31       24       28 1
  32        1       29 1
  33        2       30 1
  34        2       31 1
  35        5       32 1
  36        7       33 1
  37       11       34 1
  38       12       35 1
  39       13       36 1
  40       13       37 1
  41       14       38 1
  42       14       39 1
  43       15       40 1
  44       15       41 1
  45       16       42 1
  46       16       43 1
  47       17       44 1
  48       17       45 1
  49       19       46 1
  50       23       47 1
  51       25       48 1

@<TRIPOS>MOLECULE
CHEMBL85549
  48   51
SMALL
USER_CHARGES
@<TRIPOS>ATOM
   1 O1           1.4960     0.9962    -2.2395 O.3          1    LIG   0.0000
   2 C2           1.7412     2.1762    -1.4886 C.3          1    LIG   0.0000
   3 C3           1.4208     1.9213    -0.0261 C.3          1    LIG   0.0000
   4 O4           0.0678     1.5479     0.1809 O.3          1    LIG   0.0000
   5 C5           0.0479     0.1353     0.0757 C.3          1    LIG   0.0000
   6 N6          -1.2021    -0.4145     0.6180 N.pl3        1    LIG   0.0000
   7 C7          -2.4022     0.2317     0.6096 C.2          1    LIG   0.0000
   8 N8          -3.2840    -0.5640     1.1715 N.2          1    LIG   0.0000
   9 C9          -2.6659    -1.7219     1.5482 C.ar         1    LIG   0.0000
  10 C10         -3.1354    -2.8736     2.1723 C.ar         1    LIG   0.0000
  11 N11         -4.4888    -2.9511     2.5221 N.pl3        1    LIG   0.0000
  12 C12         -5.0091    -4.1560     3.1817 C.3          1    LIG   0.0000
  13 C13         -5.0285    -5.3250     2.2019 C.3          1    LIG   0.0000
  14 C14         -5.6427    -6.5719     2.8208 C.3          1    LIG   0.0000
  15 C15         -6.1017    -6.3415     4.2520 C.3          1    LIG   0.0000
  16 C16         -7.0542    -5.1553     4.2563 C.3          1    LIG   0.0000
  17 C17         -6.4449    -3.9133     3.6202 C.3          1    LIG   0.0000
  18 N18         -2.2995    -3.8902     2.4331 N.ar         1    LIG   0.0000
  19 C19         -1.0054    -3.7966     2.0908 C.ar         1    LIG   0.0000
  20 N20         -0.5466    -2.6900     1.4831 N.ar         1    LIG   0.0000
  21 C21         -1.3389    -1.6415     1.1989 C.ar         1    LIG   0.0000
  22 C22          1.2289    -0.2783     0.9254 C.3          1    LIG   0.0000
  23 O23          0.8604    -0.1399     2.2913 O.3          1    LIG   0.0000
  24 C24          2.2471     0.7769     0.5370 C.3          1    LIG   0.0000
  25 O25          2.9941     1.1909     1.6707 O.3          1    LIG   0.0000
  26 H            1.6134     2.7506     0.4985 H            1    LIG   0.0000
  27 H            1.5430    -1.2031     0.7109 H            1    LIG   0.0000
  28 H            2.8611     0.4187    -0.1663 H            1    LIG   0.0000
  29 H            1.7069     1.1640    -3.2025 H            1    LIG   0.0000
  30 H            1.1632     2.9163    -1.8325 H            1    LIG   0.0000
  31 H            2.7029     2.4349    -1.5790 H            1    LIG   0.0000
  32 H            0.1777    -0.1507    -0.8738 H            1    LIG   0.0000
  33 H           -2.5793     1.1449     0.2427 H            1    LIG   0.0000
  34 H           -5.1013    -2.1861     2.3228 H            1    LIG   0.0000
  35 H           -4.4432    -4.3834     3.9743 H            1    LIG   0.0000
  36 H           -4.0900    -5.5302     1.9243 H            1    LIG   0.0000
  37 H           -5.5643    -5.0649     1.3986 H            1    LIG   0.0000
  38 H           -4.9601    -7.3026     2.8159 H            1    LIG   0.0000
  39 H           -6.4310    -6.8485     2.2711 H            1    LIG   0.0000
  40 H           -5.3125    -6.1449     4.8338 H            1    LIG   0.0000
  41 H           -6.5723    -7.1556     4.5925 H            1    LIG   0.0000
  42 H           -7.8783    -5.4043     3.7475 H            1    LIG   0.0000
  43 H           -7.2981    -4.9437     5.2027 H            1    LIG   0.0000
  44 H           -6.9893    -3.6574     2.8213 H            1    LIG   0.0000
  45 H           -6.4592    -3.1673     4.2861 H            1    LIG   0.0000
  46 H           -0.3812    -4.5524     2.2885 H            1    LIG   0.0000
  47 H            0.1898    -0.8428     2.5285 H            1    LIG   0.0000
  48 H            3.5266     0.4194     2.0189 H            1    LIG   0.0000
@<TRIPOS>BOND
   1        1        2 1
   2        2        3 1
   3        3        4 1
   4        4        5 1
   5        5        6 1
   6        6        7 1
   7        7        8 2
   8        8        9 1
   9        9       10 ar
  10       10       11 1
  11       11       12 1
  12       12       13 1
  13       13       14 1
  14       14       15 1
  15       15       16 1
  16       16       17 1
  17       17       12 1
  18       10       18 ar
  19       18       19 ar
  20       19       20 ar
  21       20       21 ar
  22       21        9 ar
  23       21        6 1
  24        5       22 1
  25       22       23 1
  26       22       24 1
  27       24        3 1
  28       24       25 1
  29        3       26 1
  30       22       27 1
  31       24       28 1
  32        1       29 1
  33        2       30 1
  34        2       31 1
  35        5       32 1
  36        7       33 1
  37       11       34 1
  38       12       35 1
  39       13       36 1
  40       13       37 1
  41       14       38 1
  42       14       39 1
  43       15       40 1
  44       15       41 1
  45       16       42 1
  46       16       43 1
  47       17       44 1
  48       17       45 1
  49       19       46 1
  50       23       47 1
  51       25       48 1

@<TRIPOS>MOLECULE
CHEMBL85549
  48   51
SMALL
USER_CHARGES
@<TRIPOS>ATOM
   1 O1           1.4960     0.9962    -2.2395 O.3          1    LIG   0.0000
   2 C2           1.7412     2.1762    -1.4886 C.3          1    LIG   0.0000
   3 C3           1.4208     1.9213    -0.0261 C.3          1    LIG   0.0000
   4 O4           0.0678     1.5479     0.1809 O.3          1    LIG   0.0000
   5 C5           0.0479     0.1353     0.0757 C.3          1    LIG   0.0000
   6 N6          -1.2021    -0.4145     0.6180 N.pl3        1    LIG   0.0000
   7 C7          -1.9284     0.1533     1.6221 C.2          1    LIG   0.0000
   8 N8          -2.9755    -0.6115     1.8342 N.2          1    LIG   0.0000
   9 C9          -2.9343    -1.6743     0.9778 C.ar         1    LIG   0.0000
  10 C10         -3.7862    -2.7583     0.7892 C.ar         1    LIG   0.0000
  11 N11         -4.9313    -2.8671     1.5873 N.pl3        1    LIG   0.0000
  12 C12         -5.8477    -4.0034     1.4076 C.3          1    LIG   0.0000
  13 C13         -7.0120    -3.9012     2.3850 C.3          1    LIG   0.0000
  14 C14         -8.0061    -5.0384     2.2005 C.3          1    LIG   0.0000
  15 C15         -7.6332    -5.9586     1.0463 C.3          1    LIG   0.0000
  16 C16         -7.4375    -5.1124    -0.2007 C.3          1    LIG   0.0000
  17 C17         -6.4145    -4.0048    -0.0030 C.3          1    LIG   0.0000
  18 N18         -3.5090    -3.6821    -0.1435 N.ar         1    LIG   0.0000
  19 C19         -2.4061    -3.5606    -0.8980 C.ar         1    LIG   0.0000
  20 N20         -1.5823    -2.5139    -0.7252 N.ar         1    LIG   0.0000
  21 C21         -1.8105    -1.5600     0.1946 C.ar         1    LIG   0.0000
  22 C22          1.2289    -0.2783     0.9254 C.3          1    LIG   0.0000
  23 O23          0.8604    -0.1399     2.2913 O.3          1    LIG   0.0000
  24 C24          2.2471     0.7769     0.5370 C.3          1    LIG   0.0000
  25 O25          2.9941     1.1909     1.6707 O.3          1    LIG   0.0000
  26 H            1.6134     2.7506     0.4985 H            1    LIG   0.0000
  27 H            1.5430    -1.2031     0.7109 H            1    LIG   0.0000
  28 H            2.8611     0.4187    -0.1663 H            1    LIG   0.0000
  29 H            1.7069     1.1640    -3.2025 H            1    LIG   0.0000
  30 H            1.1632     2.9163    -1.8325 H            1    LIG   0.0000
  31 H            2.7029     2.4349    -1.5790 H            1    LIG   0.0000
  32 H            0.1777    -0.1507    -0.8738 H            1    LIG   0.0000
  33 H           -1.7050     0.9979     2.1085 H            1    LIG   0.0000
  34 H           -5.1262    -2.1722     2.2794 H            1    LIG   0.0000
  35 H           -5.3532    -4.8577     1.5680 H            1    LIG   0.0000
  36 H           -7.4835    -3.0318     2.2370 H            1    LIG   0.0000
  37 H           -6.6546    -3.9319     3.3185 H            1    LIG   0.0000
  38 H           -8.9093    -4.6486     2.0207 H            1    LIG   0.0000
  39 H           -8.0371    -5.5769     3.0426 H            1    LIG   0.0000
  40 H           -8.3663    -6.6213     0.8927 H            1    LIG   0.0000
  41 H           -6.7855    -6.4433     1.2616 H            1    LIG   0.0000
  42 H           -7.1279    -5.7050    -0.9443 H            1    LIG   0.0000
  43 H           -8.3138    -4.6984    -0.4472 H            1    LIG   0.0000
  44 H           -5.6655    -4.1365    -0.6524 H            1    LIG   0.0000
  45 H           -6.8543    -3.1235    -0.1758 H            1    LIG   0.0000
  46 H           -2.1970    -4.2510    -1.5906 H            1    LIG   0.0000
  47 H            0.1898    -0.8428     2.5285 H            1    LIG   0.0000
  48 H            3.5266     0.4194     2.0189 H            1    LIG   0.0000
@<TRIPOS>BOND
   1        1        2 1
   2        2        3 1
   3        3        4 1
   4        4        5 1
   5        5        6 1
   6        6        7 1
   7        7        8 2
   8        8        9 1
   9        9       10 ar
  10       10       11 1
  11       11       12 1
  12       12       13 1
  13       13       14 1
  14       14       15 1
  15       15       16 1
  16       16       17 1
  17       17       12 1
  18       10       18 ar
  19       18       19 ar
  20       19       20 ar
  21       20       21 ar
  22       21        9 ar
  23       21        6 1
  24        5       22 1
  25       22       23 1
  26       22       24 1
  27       24        3 1
  28       24       25 1
  29        3       26 1
  30       22       27 1
  31       24       28 1
  32        1       29 1
  33        2       30 1
  34        2       31 1
  35        5       32 1
  36        7       33 1
  37       11       34 1
  38       12       35 1
  39       13       36 1
  40       13       37 1
  41       14       38 1
  42       14       39 1
  43       15       40 1
  44       15       41 1
  45       16       42 1
  46       16       43 1
  47       17       44 1
  48       17       45 1
  49       19       46 1
  50       23       47 1
  51       25       48 1

@<TRIPOS>MOLECULE
CHEMBL85549
  48   51
SMALL
USER_CHARGES
@<TRIPOS>ATOM
   1 O1           1.4960     0.9962    -2.2395 O.3          1    LIG   0.0000
   2 C2           1.7412     2.1762    -1.4886 C.3          1    LIG   0.0000
   3 C3           1.4208     1.9213    -0.0261 C.3          1    LIG   0.0000
   4 O4           0.0678     1.5479     0.1809 O.3          1    LIG   0.0000
   5 C5           0.0479     0.1353     0.0757 C.3          1    LIG   0.0000
   6 N6          -1.2021    -0.4145     0.6180 N.pl3        1    LIG   0.0000
   7 C7          -1.9284     0.1533     1.6221 C.2          1    LIG   0.0000
   8 N8          -2.9755    -0.6115     1.8342 N.2          1    LIG   0.0000
   9 C9          -2.9343    -1.6743     0.9778 C.ar         1    LIG   0.0000
  10 C10         -3.7862    -2.7583     0.7892 C.ar         1    LIG   0.0000
  11 N11         -4.9313    -2.8671     1.5873 N.pl3        1    LIG   0.0000
  12 C12         -5.8465    -4.0020     1.4079 C.3          1    LIG   0.0000
  13 C13         -6.5867    -3.8756     0.0800 C.3          1    LIG   0.0000
  14 C14         -7.6098    -4.9864    -0.1054 C.3          1    LIG   0.0000
  15 C15         -7.6560    -5.9348     1.0823 C.3          1    LIG   0.0000
  16 C16         -7.9082    -5.1092     2.3350 C.3          1    LIG   0.0000
  17 C17         -6.8945    -3.9864     2.5097 C.3          1    LIG   0.0000
  18 N18         -3.5090    -3.6821    -0.1435 N.ar         1    LIG   0.0000
  19 C19         -2.4061    -3.5606    -0.8980 C.ar         1    LIG   0.0000
  20 N20         -1.5823    -2.5139    -0.7252 N.ar         1    LIG   0.0000
  21 C21         -1.8105    -1.5600     0.1946 C.ar         1    LIG   0.0000
  22 C22          1.2289    -0.2783     0.9254 C.3          1    LIG   0.0000
  23 O23          0.8604    -0.1399     2.2913 O.3          1    LIG   0.0000
  24 C24          2.2471     0.7769     0.5370 C.3          1    LIG   0.0000
  25 O25          2.9941     1.1909     1.6707 O.3          1    LIG   0.0000
  26 H            1.6134     2.7506     0.4985 H            1    LIG   0.0000
  27 H            1.5430    -1.2031     0.7109 H            1    LIG   0.0000
  28 H            2.8611     0.4187    -0.1663 H            1    LIG   0.0000
  29 H            1.7069     1.1640    -3.2025 H            1    LIG   0.0000
  30 H            1.1632     2.9163    -1.8325 H            1    LIG   0.0000
  31 H            2.7029     2.4349    -1.5790 H            1    LIG   0.0000
  32 H            0.1777    -0.1507    -0.8738 H            1    LIG   0.0000
  33 H           -1.7050     0.9979     2.1085 H            1    LIG   0.0000
  34 H           -5.1262    -2.1722     2.2794 H            1    LIG   0.0000
  35 H           -5.3354    -4.8610     1.4341 H            1    LIG   0.0000
  36 H           -5.9225    -3.9196    -0.6662 H            1    LIG   0.0000
  37 H           -7.0582    -2.9940     0.0550 H            1    LIG   0.0000
  38 H           -7.3722    -5.5087    -0.9245 H            1    LIG   0.0000
  39 H           -8.5135    -4.5747    -0.2231 H            1    LIG   0.0000
  40 H           -6.7845    -6.4182     1.1644 H            1    LIG   0.0000
  41 H           -8.3945    -6.5976     0.9586 H            1    LIG   0.0000
  42 H           -8.8227    -4.7088     2.2761 H            1    LIG   0.0000
  43 H           -7.8589    -5.7120     3.1313 H            1    LIG   0.0000
  44 H           -7.3747    -3.1095     2.4886 H            1    LIG   0.0000
  45 H           -6.4384    -4.0955     3.3929 H            1    LIG   0.0000
  46 H           -2.1970    -4.2510    -1.5906 H            1    LIG   0.0000
  47 H            0.1898    -0.8428     2.5285 H            1    LIG   0.0000
  48 H            3.5266     0.4194     2.0189 H            1    LIG   0.0000
@<TRIPOS>BOND
   1        1        2 1
   2        2        3 1
   3        3        4 1
   4        4        5 1
   5        5        6 1
   6        6        7 1
   7        7        8 2
   8        8        9 1
   9        9       10 ar
  10       10       11 1
  11       11       12 1
  12       12       13 1
  13       13       14 1
  14       14       15 1
  15       15       16 1
  16       16       17 1
  17       17       12 1
  18       10       18 ar
  19       18       19 ar
  20       19       20 ar
  21       20       21 ar
  22       21        9 ar
  23       21        6 1
  24        5       22 1
  25       22       23 1
  26       22       24 1
  27       24        3 1
  28       24       25 1
  29        3       26 1
  30       22       27 1
  31       24       28 1
  32        1       29 1
  33        2       30 1
  34        2       31 1
  35        5       32 1
  36        7       33 1
  37       11       34 1
  38       12       35 1
  39       13       36 1
  40       13       37 1
  41       14       38 1
  42       14       39 1
  43       15       40 1
  44       15       41 1
  45       16       42 1
  46       16       43 1
  47       17       44 1
  48       17       45 1
  49       19       46 1
  50       23       47 1
  51       25       48 1

@<TRIPOS>MOLECULE
CHEMBL85549
  48   51
SMALL
USER_CHARGES
@<TRIPOS>ATOM
   1 O1           1.4960     0.9962    -2.2395 O.3          1    LIG   0.0000
   2 C2           1.7412     2.1762    -1.4886 C.3          1    LIG   0.0000
   3 C3           1.4208     1.9213    -0.0261 C.3          1    LIG   0.0000
   4 O4           0.0678     1.5479     0.1809 O.3          1    LIG   0.0000
   5 C5           0.0479     0.1353     0.0757 C.3          1    LIG   0.0000
   6 N6          -1.2021    -0.4145     0.6180 N.pl3        1    LIG   0.0000
   7 C7          -1.6269    -0.2547     1.9033 C.2          1    LIG   0.0000
   8 N8          -2.7783    -0.8769     2.0197 N.2          1    LIG   0.0000
   9 C9          -3.1043    -1.4430     0.8206 C.ar         1    LIG   0.0000
  10 C10         -4.1983    -2.1975     0.4080 C.ar         1    LIG   0.0000
  11 N11         -5.2100    -2.4855     1.3319 N.pl3        1    LIG   0.0000
  12 C12         -6.3759    -3.2805     0.9210 C.3          1    LIG   0.0000
  13 C13         -7.2497    -2.4774    -0.0288 C.3          1    LIG   0.0000
  14 C14         -8.4508    -3.3053    -0.4563 C.3          1    LIG   0.0000
  15 C15         -7.9922    -4.5857    -1.1358 C.3          1    LIG   0.0000
  16 C16         -7.1231    -5.3855    -0.1783 C.3          1    LIG   0.0000
  17 C17         -5.9169    -4.5661     0.2520 C.3          1    LIG   0.0000
  18 N18         -4.2765    -2.6402    -0.8561 N.ar         1    LIG   0.0000
  19 C19         -3.2962    -2.3543    -1.7267 C.ar         1    LIG   0.0000
  20 N20         -2.2400    -1.6218    -1.3367 N.ar         1    LIG   0.0000
  21 C21         -2.1097    -1.1538    -0.0830 C.ar         1    LIG   0.0000
  22 C22          1.2289    -0.2783     0.9254 C.3          1    LIG   0.0000
  23 O23          0.8604    -0.1399     2.2913 O.3          1    LIG   0.0000
  24 C24          2.2471     0.7769     0.5370 C.3          1    LIG   0.0000
  25 O25          2.9941     1.1909     1.6707 O.3          1    LIG   0.0000
  26 H            1.6134     2.7506     0.4985 H            1    LIG   0.0000
  27 H            1.5430    -1.2031     0.7109 H            1    LIG   0.0000
  28 H            2.8611     0.4187    -0.1663 H            1    LIG   0.0000
  29 H            1.7069     1.1640    -3.2025 H            1    LIG   0.0000
  30 H            1.1632     2.9163    -1.8325 H            1    LIG   0.0000
  31 H            2.7029     2.4349    -1.5790 H            1    LIG   0.0000
  32 H            0.1777    -0.1507    -0.8738 H            1    LIG   0.0000
  33 H           -1.1493     0.2450     2.6260 H            1    LIG   0.0000
  34 H           -5.1394    -2.1502     2.2713 H            1    LIG   0.0000
  35 H           -6.9108    -3.5126     1.7334 H            1    LIG   0.0000
  36 H           -6.7166    -2.2259    -0.8366 H            1    LIG   0.0000
  37 H           -7.5662    -1.6488     0.4330 H            1    LIG   0.0000
  38 H           -9.0077    -2.7740    -1.0947 H            1    LIG   0.0000
  39 H           -8.9962    -3.5362     0.3494 H            1    LIG   0.0000
  40 H           -7.4642    -4.3580    -1.9540 H            1    LIG   0.0000
  41 H           -8.7903    -5.1297    -1.3948 H            1    LIG   0.0000
  42 H           -7.6605    -5.6298     0.6288 H            1    LIG   0.0000
  43 H           -6.8099    -6.2182    -0.6349 H            1    LIG   0.0000
  44 H           -5.3680    -5.0978     0.8970 H            1    LIG   0.0000
  45 H           -5.3642    -4.3429    -0.5510 H            1    LIG   0.0000
  46 H           -3.3521    -2.6874    -2.6679 H            1    LIG   0.0000
  47 H            0.1898    -0.8428     2.5285 H            1    LIG   0.0000
  48 H            3.5266     0.4194     2.0189 H            1    LIG   0.0000
@<TRIPOS>BOND
   1        1        2 1
   2        2        3 1
   3        3        4 1
   4        4        5 1
   5        5        6 1
   6        6        7 1
   7        7        8 2
   8        8        9 1
   9        9       10 ar
  10       10       11 1
  11       11       12 1
  12       12       13 1
  13       13       14 1
  14       14       15 1
  15       15       16 1
  16       16       17 1
  17       17       12 1
  18       10       18 ar
  19       18       19 ar
  20       19       20 ar
  21       20       21 ar
  22       21        9 ar
  23       21        6 1
  24        5       22 1
  25       22       23 1
  26       22       24 1
  27       24        3 1
  28       24       25 1
  29        3       26 1
  30       22       27 1
  31       24       28 1
  32        1       29 1
  33        2       30 1
  34        2       31 1
  35        5       32 1
  36        7       33 1
  37       11       34 1
  38       12       35 1
  39       13       36 1
  40       13       37 1
  41       14       38 1
  42       14       39 1
  43       15       40 1
  44       15       41 1
  45       16       42 1
  46       16       43 1
  47       17       44 1
  48       17       45 1
  49       19       46 1
  50       23       47 1
  51       25       48 1

@<TRIPOS>MOLECULE
CHEMBL85549
  48   51
SMALL
USER_CHARGES
@<TRIPOS>ATOM
   1 O1           1.4960     0.9962    -2.2395 O.3          1    LIG   0.0000
   2 C2           1.7412     2.1762    -1.4886 C.3          1    LIG   0.0000
   3 C3           1.4208     1.9213    -0.0261 C.3          1    LIG   0.0000
   4 O4           0.0678     1.5479     0.1809 O.3          1    LIG   0.0000
   5 C5           0.0479     0.1353     0.0757 C.3          1    LIG   0.0000
   6 N6          -1.2021    -0.4145     0.6180 N.pl3        1    LIG   0.0000
   7 C7          -1.5124    -1.7411     0.6605 C.2          1    LIG   0.0000
   8 N8          -2.6998    -1.8523     1.2120 N.2          1    LIG   0.0000
   9 C9          -3.1656    -0.6076     1.5260 C.ar         1    LIG   0.0000
  10 C10         -4.3471    -0.1720     2.1182 C.ar         1    LIG   0.0000
  11 N11         -5.3049    -1.1203     2.4970 N.pl3        1    LIG   0.0000
  12 C12         -6.5619    -0.6856     3.1249 C.3          1    LIG   0.0000
  13 C13         -6.2948    -0.1583     4.5291 C.3          1    LIG   0.0000
  14 C14         -7.5677     0.3417     5.1965 C.3          1    LIG   0.0000
  15 C15         -8.7801     0.2567     4.2795 C.3          1    LIG   0.0000
  16 C16         -8.4523     0.9726     2.9798 C.3          1    LIG   0.0000
  17 C17         -7.1964     0.4327     2.3136 C.3          1    LIG   0.0000
  18 N18         -4.5600     1.1372     2.3196 N.ar         1    LIG   0.0000
  19 C19         -3.6301     2.0308     1.9490 C.ar         1    LIG   0.0000
  20 N20         -2.4850     1.6170     1.3818 N.ar         1    LIG   0.0000
  21 C21         -2.2198     0.3184     1.1554 C.ar         1    LIG   0.0000
  22 C22          1.2289    -0.2783     0.9254 C.3          1    LIG   0.0000
  23 O23          0.8604    -0.1399     2.2913 O.3          1    LIG   0.0000
  24 C24          2.2471     0.7769     0.5370 C.3          1    LIG   0.0000
  25 O25          2.9941     1.1909     1.6707 O.3          1    LIG   0.0000
  26 H            1.6134     2.7506     0.4985 H            1    LIG   0.0000
  27 H            1.5430    -1.2031     0.7109 H            1    LIG   0.0000
  28 H            2.8611     0.4187    -0.1663 H            1    LIG   0.0000
  29 H            1.7069     1.1640    -3.2025 H            1    LIG   0.0000
  30 H            1.1632     2.9163    -1.8325 H            1    LIG   0.0000
  31 H            2.7029     2.4349    -1.5790 H            1    LIG   0.0000
  32 H            0.1777    -0.1507    -0.8738 H            1    LIG   0.0000
  33 H           -0.9406    -2.4928     0.3318 H            1    LIG   0.0000
  34 H           -5.1344    -2.0932     2.3407 H            1    LIG   0.0000
  35 H           -7.1933    -1.4594     3.1749 H            1    LIG   0.0000
  36 H           -5.6411     0.5963     4.4726 H            1    LIG   0.0000
  37 H           -5.9067    -0.8948     5.0831 H            1    LIG   0.0000
  38 H           -7.4353     1.2958     5.4651 H            1    LIG   0.0000
  39 H           -7.7419    -0.2126     6.0104 H            1    LIG   0.0000
  40 H           -9.5655     0.6946     4.7171 H            1    LIG   0.0000
  41 H           -8.9947    -0.7019     4.0919 H            1    LIG   0.0000
  42 H           -9.2214     0.8614     2.3504 H            1    LIG   0.0000
  43 H           -8.3187     1.9443     3.1746 H            1    LIG   0.0000
  44 H           -7.4360     0.0802     1.4090 H            1    LIG   0.0000
  45 H           -6.5358     1.1772     2.2170 H            1    LIG   0.0000
  46 H           -3.7900     3.0070     2.0953 H            1    LIG   0.0000
  47 H            0.1898    -0.8428     2.5285 H            1    LIG   0.0000
  48 H            3.5266     0.4194     2.0189 H            1    LIG   0.0000
@<TRIPOS>BOND
   1        1        2 1
   2        2        3 1
   3        3        4 1
   4        4        5 1
   5        5        6 1
   6        6        7 1
   7        7        8 2
   8        8        9 1
   9        9       10 ar
  10       10       11 1
  11       11       12 1
  12       12       13 1
  13       13       14 1
  14       14       15 1
  15       15       16 1
  16       16       17 1
  17       17       12 1
  18       10       18 ar
  19       18       19 ar
  20       19       20 ar
  21       20       21 ar
  22       21        9 ar
  23       21        6 1
  24        5       22 1
  25       22       23 1
  26       22       24 1
  27       24        3 1
  28       24       25 1
  29        3       26 1
  30       22       27 1
  31       24       28 1
  32        1       29 1
  33        2       30 1
  34        2       31 1
  35        5       32 1
  36        7       33 1
  37       11       34 1
  38       12       35 1
  39       13       36 1
  40       13       37 1
  41       14       38 1
  42       14       39 1
  43       15       40 1
  44       15       41 1
  45       16       42 1
  46       16       43 1
  47       17       44 1
  48       17       45 1
  49       19       46 1
  50       23       47 1
  51       25       48 1

@<TRIPOS>MOLECULE
CHEMBL85549
  48   51
SMALL
USER_CHARGES
@<TRIPOS>ATOM
   1 O1           1.4960     0.9962    -2.2395 O.3          1    LIG   0.0000
   2 C2           1.7412     2.1762    -1.4886 C.3          1    LIG   0.0000
   3 C3           1.4208     1.9213    -0.0261 C.3          1    LIG   0.0000
   4 O4           0.0678     1.5479     0.1809 O.3          1    LIG   0.0000
   5 C5           0.0479     0.1353     0.0757 C.3          1    LIG   0.0000
   6 N6          -1.2021    -0.4145     0.6180 N.pl3        1    LIG   0.0000
   7 C7          -1.5124    -1.7411     0.6605 C.2          1    LIG   0.0000
   8 N8          -2.6998    -1.8523     1.2120 N.2          1    LIG   0.0000
   9 C9          -3.1656    -0.6076     1.5260 C.ar         1    LIG   0.0000
  10 C10         -4.3471    -0.1720     2.1182 C.ar         1    LIG   0.0000
  11 N11         -5.3049    -1.1203     2.4970 N.pl3        1    LIG   0.0000
  12 C12         -6.5619    -0.6856     3.1249 C.3          1    LIG   0.0000
  13 C13         -7.4399     0.0303     2.1061 C.3          1    LIG   0.0000
  14 C14         -8.7702     0.4583     2.7084 C.3          1    LIG   0.0000
  15 C15         -8.9275     0.0105     4.1549 C.3          1    LIG   0.0000
  16 C16         -8.6810    -1.4874     4.2250 C.3          1    LIG   0.0000
  17 C17         -7.3314    -1.8872     3.6495 C.3          1    LIG   0.0000
  18 N18         -4.5600     1.1372     2.3196 N.ar         1    LIG   0.0000
  19 C19         -3.6301     2.0308     1.9490 C.ar         1    LIG   0.0000
  20 N20         -2.4850     1.6170     1.3818 N.ar         1    LIG   0.0000
  21 C21         -2.2198     0.3184     1.1554 C.ar         1    LIG   0.0000
  22 C22          1.2289    -0.2783     0.9254 C.3          1    LIG   0.0000
  23 O23          0.8604    -0.1399     2.2913 O.3          1    LIG   0.0000
  24 C24          2.2471     0.7769     0.5370 C.3          1    LIG   0.0000
  25 O25          2.9941     1.1909     1.6707 O.3          1    LIG   0.0000
  26 H            1.6134     2.7506     0.4985 H            1    LIG   0.0000
  27 H            1.5430    -1.2031     0.7109 H            1    LIG   0.0000
  28 H            2.8611     0.4187    -0.1663 H            1    LIG   0.0000
  29 H            1.7069     1.1640    -3.2025 H            1    LIG   0.0000
  30 H            1.1632     2.9163    -1.8325 H            1    LIG   0.0000
  31 H            2.7029     2.4349    -1.5790 H            1    LIG   0.0000
  32 H            0.1777    -0.1507    -0.8738 H            1    LIG   0.0000
  33 H           -0.9406    -2.4928     0.3318 H            1    LIG   0.0000
  34 H           -5.1344    -2.0932     2.3407 H            1    LIG   0.0000
  35 H           -6.3579    -0.0651     3.8821 H            1    LIG   0.0000
  36 H           -7.6154    -0.5872     1.3394 H            1    LIG   0.0000
  37 H           -6.9575     0.8420     1.7767 H            1    LIG   0.0000
  38 H           -9.5103     0.0593     2.1670 H            1    LIG   0.0000
  39 H           -8.8318     1.4558     2.6731 H            1    LIG   0.0000
  40 H           -9.8533     0.2153     4.4728 H            1    LIG   0.0000
  41 H           -8.2641     0.4888     4.7303 H            1    LIG   0.0000
  42 H           -8.7179    -1.7733     5.1826 H            1    LIG   0.0000
  43 H           -9.3997    -1.9544     3.7098 H            1    LIG   0.0000
  44 H           -6.7920    -2.3289     4.3663 H            1    LIG   0.0000
  45 H           -7.4779    -2.5307     2.8982 H            1    LIG   0.0000
  46 H           -3.7900     3.0070     2.0953 H            1    LIG   0.0000
  47 H            0.1898    -0.8428     2.5285 H            1    LIG   0.0000
  48 H            3.5266     0.4194     2.0189 H            1    LIG   0.0000
@<TRIPOS>BOND
   1        1        2 1
   2        2        3 1
   3        3        4 1
   4        4        5 1
   5        5        6 1
   6        6        7 1
   7        7        8 2
   8        8        9 1
   9        9       10 ar
  10       10       11 1
  11       11       12 1
  12       12       13 1
  13       13       14 1
  14       14       15 1
  15       15       16 1
  16       16       17 1
  17       17       12 1
  18       10       18 ar
  19       18       19 ar
  20       19       20 ar
  21       20       21 ar
  22       21        9 ar
  23       21        6 1
  24        5       22 1
  25       22       23 1
  26       22       24 1
  27       24        3 1
  28       24       25 1
  29        3       26 1
  30       22       27 1
  31       24       28 1
  32        1       29 1
  33        2       30 1
  34        2       31 1
  35        5       32 1
  36        7       33 1
  37       11       34 1
  38       12       35 1
  39       13       36 1
  40       13       37 1
  41       14       38 1
  42       14       39 1
  43       15       40 1
  44       15       41 1
  45       16       42 1
  46       16       43 1
  47       17       44 1
  48       17       45 1
  49       19       46 1
  50       23       47 1
  51       25       48 1

@<TRIPOS>MOLECULE
CHEMBL85549
  48   51
SMALL
USER_CHARGES
@<TRIPOS>ATOM
   1 O1           1.4960     0.9962    -2.2395 O.3          1    LIG   0.0000
   2 C2           1.7412     2.1762    -1.4886 C.3          1    LIG   0.0000
   3 C3           1.4208     1.9213    -0.0261 C.3          1    LIG   0.0000
   4 O4           0.0678     1.5479     0.1809 O.3          1    LIG   0.0000
   5 C5           0.0479     0.1353     0.0757 C.3          1    LIG   0.0000
   6 N6          -1.2021    -0.4145     0.6180 N.pl3        1    LIG   0.0000
   7 C7          -1.5124    -1.7411     0.6605 C.2          1    LIG   0.0000
   8 N8          -2.6998    -1.8523     1.2120 N.2          1    LIG   0.0000
   9 C9          -3.1656    -0.6076     1.5260 C.ar         1    LIG   0.0000
  10 C10         -4.3471    -0.1720     2.1182 C.ar         1    LIG   0.0000
  11 N11         -5.3049    -1.1203     2.4970 N.pl3        1    LIG   0.0000
  12 C12         -6.5603    -0.6861     3.1241 C.3          1    LIG   0.0000
  13 C13         -7.4342    -1.8951     3.4430 C.3          1    LIG   0.0000
  14 C14         -8.7828    -1.4834     4.0147 C.3          1    LIG   0.0000
  15 C15         -8.9345     0.0267     4.1094 C.3          1    LIG   0.0000
  16 C16         -8.6795     0.6134     2.7291 C.3          1    LIG   0.0000
  17 C17         -7.3376     0.1858     2.1504 C.3          1    LIG   0.0000
  18 N18         -4.5600     1.1372     2.3196 N.ar         1    LIG   0.0000
  19 C19         -3.6301     2.0308     1.9490 C.ar         1    LIG   0.0000
  20 N20         -2.4850     1.6170     1.3818 N.ar         1    LIG   0.0000
  21 C21         -2.2198     0.3184     1.1554 C.ar         1    LIG   0.0000
  22 C22          1.2289    -0.2783     0.9254 C.3          1    LIG   0.0000
  23 O23          0.8604    -0.1399     2.2913 O.3          1    LIG   0.0000
  24 C24          2.2471     0.7769     0.5370 C.3          1    LIG   0.0000
  25 O25          2.9941     1.1909     1.6707 O.3          1    LIG   0.0000
  26 H            1.6134     2.7506     0.4985 H            1    LIG   0.0000
  27 H            1.5430    -1.2031     0.7109 H            1    LIG   0.0000
  28 H            2.8611     0.4187    -0.1663 H            1    LIG   0.0000
  29 H            1.7069     1.1640    -3.2025 H            1    LIG   0.0000
  30 H            1.1632     2.9163    -1.8325 H            1    LIG   0.0000
  31 H            2.7029     2.4349    -1.5790 H            1    LIG   0.0000
  32 H            0.1777    -0.1507    -0.8738 H            1    LIG   0.0000
  33 H           -0.9406    -2.4928     0.3318 H            1    LIG   0.0000
  34 H           -5.1344    -2.0932     2.3407 H            1    LIG   0.0000
  35 H           -6.3656    -0.1746     3.9610 H            1    LIG   0.0000
  36 H           -6.9611    -2.4691     4.1113 H            1    LIG   0.0000
  37 H           -7.5845    -2.4164     2.6029 H            1    LIG   0.0000
  38 H           -8.8762    -1.8737     4.9306 H            1    LIG   0.0000
  39 H           -9.5054    -1.8424     3.4240 H            1    LIG   0.0000
  40 H           -8.2716     0.3939     4.7618 H            1    LIG   0.0000
  41 H           -9.8602     0.2563     4.4099 H            1    LIG   0.0000
  42 H           -9.4058     0.3093     2.1126 H            1    LIG   0.0000
  43 H           -8.6959     1.6109     2.7971 H            1    LIG   0.0000
  44 H           -7.4967    -0.3300     1.3086 H            1    LIG   0.0000
  45 H           -6.7982     1.0023     1.9440 H            1    LIG   0.0000
  46 H           -3.7900     3.0070     2.0953 H            1    LIG   0.0000
  47 H            0.1898    -0.8428     2.5285 H            1    LIG   0.0000
  48 H            3.5266     0.4194     2.0189 H            1    LIG   0.0000
@<TRIPOS>BOND
   1        1        2 1
   2        2        3 1
   3        3        4 1
   4        4        5 1
   5        5        6 1
   6        6        7 1
   7        7        8 2
   8        8        9 1
   9        9       10 ar
  10       10       11 1
  11       11       12 1
  12       12       13 1
  13       13       14 1
  14       14       15 1
  15       15       16 1
  16       16       17 1
  17       17       12 1
  18       10       18 ar
  19       18       19 ar
  20       19       20 ar
  21       20       21 ar
  22       21        9 ar
  23       21        6 1
  24        5       22 1
  25       22       23 1
  26       22       24 1
  27       24        3 1
  28       24       25 1
  29        3       26 1
  30       22       27 1
  31       24       28 1
  32        1       29 1
  33        2       30 1
  34        2       31 1
  35        5       32 1
  36        7       33 1
  37       11       34 1
  38       12       35 1
  39       13       36 1
  40       13       37 1
  41       14       38 1
  42       14       39 1
  43       15       40 1
  44       15       41 1
  45       16       42 1
  46       16       43 1
  47       17       44 1
  48       17       45 1
  49       19       46 1
  50       23       47 1
  51       25       48 1

